Global frequency set at 1000000000000 ticks per second
 Register [printBranch()] ExitCallback !!!!!!! 
gem5 Simulator System.  https://www.gem5.org
gem5 is copyrighted software; use the --copyright option for details.

gem5 version 22.0.0.2
gem5 compiled Sep  7 2022 00:42:18
gem5 started Sep  7 2022 06:24:42
gem5 executing on a100, pid 2826335
command line: /data/zxf/gem5/gem5-prof/build/ARM/gem5.fast --outdir=/data/zxf/checkpoint/spec2006/429.mcf/prof/mcf_ckp_12 /data/zxf/gem5/gem5-prof/configs/example/se.py --cpu-type O3CPU --cpu-clock 1GHz --num-cpu 1 --l1d-hwp-type=BOPPrefetcher --caches --l2cache --l1i_size 32kB --l1d_size 32kB --l2_size 1MB --l1i_assoc 8 --l1d_assoc 8 --l2_assoc 16 --cacheline_size 64 --mem-type DDR3_2133_8x8 --mem-size 16GB --restore-simpoint-checkpoint -r 12 --checkpoint-dir /data/zxf/checkpoint/spec2006/429.mcf/ckpt -c mcf_base.gcc41-64bit -o inp.in

info: Standard input is not a terminal, disabling listeners.
Resuming from /data/zxf/checkpoint/spec2006/429.mcf/ckpt/cpt.simpoint_11_inst_282290000000_weight_0.002353_interval_300000000_warmup_10000000
Resuming from SimPoint #11, start_inst:282290000000, weight:0.002353, interval:300000000, warmup:10000000
Switch at curTick count:10000
Switched CPUS @ tick 165006655254500
[(<m5.objects.ArmCPU.ArmAtomicSimpleCPU object at 0x7f3457591bb0>, <m5.objects.ArmCPU.ArmO3CPU object at 0x7f34575a9e20>)]
switching cpus



+++++++++++++++++++++++++zxf print simpoint+++++++++++++++++++++++++++
Warmed up! Dumping and resetting stats!


=============start sim!!!!!!=============
PC:11cbe     Total:2      MisBP:0   MisRate:0.00%    MPKI:0.00
PC:11c52     Total:8746629      MisBP:0   MisRate:0.00%    MPKI:0.00
PC:10cac     Total:9      MisBP:0   MisRate:0.00%    MPKI:0.00
PC:11cbc     Total:5      MisBP:0   MisRate:0.00%    MPKI:0.00
PC:109e2     Total:1      MisBP:0   MisRate:0.00%    MPKI:0.00
PC:11cc2     Total:3      MisBP:0   MisRate:0.00%    MPKI:0.00
PC:11ac0     Total:15      MisBP:0   MisRate:0.00%    MPKI:0.00
PC:119be     Total:1      MisBP:0   MisRate:0.00%    MPKI:0.00
PC:10cae     Total:9      MisBP:0   MisRate:0.00%    MPKI:0.00
PC:10c42     Total:50287      MisBP:0   MisRate:0.00%    MPKI:0.00
PC:11abc     Total:20      MisBP:0   MisRate:0.00%    MPKI:0.00
PC:109de     Total:1      MisBP:0   MisRate:0.00%    MPKI:0.00
PC:10d2e     Total:16      MisBP:0   MisRate:0.00%    MPKI:0.00
PC:10d2c     Total:3      MisBP:0   MisRate:0.00%    MPKI:0.00
PC:11d3c     Total:1      MisBP:0   MisRate:0.00%    MPKI:0.00
PC:10c54     Total:50286      MisBP:0   MisRate:0.00%    MPKI:0.00
PC:11cb4     Total:5      MisBP:0   MisRate:0.00%    MPKI:0.00
PC:11cba     Total:5      MisBP:0   MisRate:0.00%    MPKI:0.00
PC:11ac2     Total:15      MisBP:0   MisRate:0.00%    MPKI:0.00
PC:10cb4     Total:57      MisBP:0   MisRate:0.00%    MPKI:0.00
PC:11cc6     Total:3      MisBP:0   MisRate:0.00%    MPKI:0.00
PC:109dc     Total:2      MisBP:0   MisRate:0.00%    MPKI:0.00
PC:11ac4     Total:15      MisBP:0   MisRate:0.00%    MPKI:0.00
PC:109f0     Total:1      MisBP:0   MisRate:0.00%    MPKI:0.00
PC:11cca     Total:3      MisBP:0   MisRate:0.00%    MPKI:0.00
PC:11ac8     Total:15      MisBP:0   MisRate:0.00%    MPKI:0.00
PC:10cba     Total:5      MisBP:0   MisRate:0.00%    MPKI:0.00
PC:109e6     Total:1      MisBP:0   MisRate:0.00%    MPKI:0.00
PC:11ace     Total:8      MisBP:0   MisRate:0.00%    MPKI:0.00
PC:109ea     Total:1      MisBP:0   MisRate:0.00%    MPKI:0.00
PC:11ad2     Total:12      MisBP:0   MisRate:0.00%    MPKI:0.00
PC:109ec     Total:1      MisBP:0   MisRate:0.00%    MPKI:0.00
PC:11ad4     Total:12      MisBP:0   MisRate:0.00%    MPKI:0.00
PC:11c9a     Total:28715      MisBP:0   MisRate:0.00%    MPKI:0.00
PC:168b6     Total:1      MisBP:0   MisRate:0.00%    MPKI:0.00
PC:11c9e     Total:28715      MisBP:0   MisRate:0.00%    MPKI:0.00
PC:168b2     Total:1      MisBP:0   MisRate:0.00%    MPKI:0.00
PC:11c9c     Total:28715      MisBP:0   MisRate:0.00%    MPKI:0.00
PC:168b0     Total:1      MisBP:0   MisRate:0.00%    MPKI:0.00
PC:10c58     Total:50286      MisBP:0   MisRate:0.00%    MPKI:0.00
PC:11c68     Total:8722957      MisBP:0   MisRate:0.00%    MPKI:0.00
PC:11c64     Total:8729239      MisBP:0   MisRate:0.00%    MPKI:0.00
PC:11ca2     Total:28715      MisBP:0   MisRate:0.00%    MPKI:0.00
PC:168b4     Total:1      MisBP:0   MisRate:0.00%    MPKI:0.00
PC:10a4a     Total:6      MisBP:0   MisRate:0.00%    MPKI:0.00
PC:11c5c     Total:8737330      MisBP:0   MisRate:0.00%    MPKI:0.00
PC:11c96     Total:28715      MisBP:0   MisRate:0.00%    MPKI:0.00
PC:168aa     Total:1      MisBP:0   MisRate:0.00%    MPKI:0.00
PC:10c4a     Total:50287      MisBP:0   MisRate:0.00%    MPKI:0.00
PC:11d32     Total:1      MisBP:0   MisRate:0.00%    MPKI:0.00
PC:10cc6     Total:4      MisBP:0   MisRate:0.00%    MPKI:0.00
PC:168b8     Total:1      MisBP:0   MisRate:0.00%    MPKI:0.00
PC:11ca4     Total:28715      MisBP:0   MisRate:0.00%    MPKI:0.00
PC:119ac     Total:1      MisBP:0   MisRate:0.00%    MPKI:0.00
PC:11ca6     Total:28714      MisBP:0   MisRate:0.00%    MPKI:0.00
PC:168bc     Total:1      MisBP:0   MisRate:0.00%    MPKI:0.00
PC:119b0     Total:1      MisBP:0   MisRate:0.00%    MPKI:0.00
PC:168be     Total:1      MisBP:0   MisRate:0.00%    MPKI:0.00
PC:11caa     Total:5      MisBP:0   MisRate:0.00%    MPKI:0.00
PC:11cac     Total:5      MisBP:0   MisRate:0.00%    MPKI:0.00
PC:11cb0     Total:5      MisBP:0   MisRate:0.00%    MPKI:0.00
PC:10c50     Total:50287      MisBP:0   MisRate:0.00%    MPKI:0.00
PC:11d38     Total:1      MisBP:0   MisRate:0.00%    MPKI:0.00
PC:11c3a     Total:8713493      MisBP:0   MisRate:0.00%    MPKI:0.00
PC:10c2a     Total:4      MisBP:0   MisRate:0.00%    MPKI:0.00
PC:11ab8     Total:1      MisBP:0   MisRate:0.00%    MPKI:0.00
PC:10ce4     Total:5921869      MisBP:0   MisRate:0.00%    MPKI:0.00
PC:10cf6     Total:5896112      MisBP:0   MisRate:0.00%    MPKI:0.00
PC:119a4     Total:1      MisBP:0   MisRate:0.00%    MPKI:0.00
PC:10cf2     Total:5896756      MisBP:0   MisRate:0.00%    MPKI:0.00
PC:10cee     Total:5904140      MisBP:0   MisRate:0.00%    MPKI:0.00
PC:10cec     Total:5904144      MisBP:0   MisRate:0.00%    MPKI:0.00
PC:10cea     Total:5904175      MisBP:0   MisRate:0.00%    MPKI:0.00
PC:10ce8     Total:5907184      MisBP:0   MisRate:0.00%    MPKI:0.00
PC:10ce6     Total:5912225      MisBP:0   MisRate:0.00%    MPKI:0.00
PC:119a6     Total:1      MisBP:0   MisRate:0.00%    MPKI:0.00
PC:10ce2     Total:5923135      MisBP:0   MisRate:0.00%    MPKI:0.00
PC:10c7c     Total:6      MisBP:0   MisRate:0.00%    MPKI:0.00
PC:10c74     Total:3      MisBP:0   MisRate:0.00%    MPKI:0.00
PC:10c6e     Total:3      MisBP:0   MisRate:0.00%    MPKI:0.00
PC:10ce0     Total:5923477      MisBP:0   MisRate:0.00%    MPKI:0.00
PC:10cde     Total:5923530      MisBP:0   MisRate:0.00%    MPKI:0.00
PC:10cdc     Total:5923545      MisBP:0   MisRate:0.00%    MPKI:0.00
PC:10cda     Total:5923702      MisBP:0   MisRate:0.00%    MPKI:0.00
PC:10cf8     Total:5896059      MisBP:0   MisRate:0.00%    MPKI:0.00
PC:10cfc     Total:1      MisBP:0   MisRate:0.00%    MPKI:0.00
PC:10d00     Total:1      MisBP:0   MisRate:0.00%    MPKI:0.00
PC:119b2     Total:1      MisBP:0   MisRate:0.00%    MPKI:0.00
PC:10d04     Total:1      MisBP:0   MisRate:0.00%    MPKI:0.00
PC:119b6     Total:1      MisBP:0   MisRate:0.00%    MPKI:0.00
PC:10d08     Total:1      MisBP:0   MisRate:0.00%    MPKI:0.00
PC:119b8     Total:1      MisBP:0   MisRate:0.00%    MPKI:0.00
PC:10d0a     Total:1      MisBP:0   MisRate:0.00%    MPKI:0.00
PC:10d0c     Total:1      MisBP:0   MisRate:0.00%    MPKI:0.00
PC:119bc     Total:1      MisBP:0   MisRate:0.00%    MPKI:0.00
PC:10d0e     Total:1      MisBP:0   MisRate:0.00%    MPKI:0.00
PC:10d12     Total:1      MisBP:0   MisRate:0.00%    MPKI:0.00
PC:10d16     Total:2      MisBP:0   MisRate:0.00%    MPKI:0.00
PC:10d1a     Total:2      MisBP:0   MisRate:0.00%    MPKI:0.00
PC:10a0c     Total:39772      MisBP:0   MisRate:0.00%    MPKI:0.00
PC:10a20     Total:123783      MisBP:0   MisRate:0.00%    MPKI:0.00
PC:10a1a     Total:130500      MisBP:0   MisRate:0.00%    MPKI:0.00
PC:10c1c     Total:12      MisBP:0   MisRate:0.00%    MPKI:0.00
PC:10c18     Total:12      MisBP:0   MisRate:0.00%    MPKI:0.00
PC:10a14     Total:161843      MisBP:0   MisRate:0.00%    MPKI:0.00
PC:10c16     Total:12      MisBP:0   MisRate:0.00%    MPKI:0.00
PC:10a10     Total:132141      MisBP:0   MisRate:0.00%    MPKI:0.00
PC:10c12     Total:12      MisBP:0   MisRate:0.00%    MPKI:0.00
PC:10a12     Total:162073      MisBP:0   MisRate:0.00%    MPKI:0.00
PC:10c0e     Total:12      MisBP:0   MisRate:0.00%    MPKI:0.00
PC:10a0a     Total:39950      MisBP:0   MisRate:0.00%    MPKI:0.00
PC:10c0c     Total:12      MisBP:0   MisRate:0.00%    MPKI:0.00
PC:10a06     Total:40337      MisBP:0   MisRate:0.00%    MPKI:0.00
PC:10c08     Total:108      MisBP:0   MisRate:0.00%    MPKI:0.00
PC:10cc8     Total:33766      MisBP:0   MisRate:0.00%    MPKI:0.00
PC:109ee     Total:1      MisBP:0   MisRate:0.00%    MPKI:0.00
PC:168ae     Total:1      MisBP:0   MisRate:0.00%    MPKI:0.00
PC:10a18     Total:130594      MisBP:0   MisRate:0.00%    MPKI:0.00
PC:10a1c     Total:125289      MisBP:0   MisRate:0.00%    MPKI:0.00
PC:10cb0     Total:9      MisBP:0   MisRate:0.00%    MPKI:0.00
PC:10cb8     Total:25      MisBP:0   MisRate:0.00%    MPKI:0.00
PC:10a00     Total:40500      MisBP:0   MisRate:0.00%    MPKI:0.00
PC:10a02     Total:40457      MisBP:0   MisRate:0.00%    MPKI:0.00
PC:10a04     Total:40446      MisBP:0   MisRate:0.00%    MPKI:0.00
PC:10a08     Total:39970      MisBP:0   MisRate:0.00%    MPKI:0.00
PC:10cc2     Total:4      MisBP:0   MisRate:0.00%    MPKI:0.00
PC:10ccc     Total:33765      MisBP:0   MisRate:0.00%    MPKI:0.00
PC:10cd0     Total:33681      MisBP:0   MisRate:0.00%    MPKI:0.00
PC:10cd2     Total:33641      MisBP:0   MisRate:0.00%    MPKI:0.00
PC:10cd4     Total:5928977      MisBP:0   MisRate:0.00%    MPKI:0.00
PC:10cd6     Total:5927389      MisBP:0   MisRate:0.00%    MPKI:0.00
PC:10cd8     Total:5927105      MisBP:0   MisRate:0.00%    MPKI:0.00
PC:10a60     Total:1      MisBP:0   MisRate:0.00%    MPKI:0.00
PC:10a2a     Total:37193      MisBP:0   MisRate:0.00%    MPKI:0.00
PC:10c2c     Total:4      MisBP:0   MisRate:0.00%    MPKI:0.00
PC:10a68     Total:1      MisBP:0   MisRate:0.00%    MPKI:0.00
PC:10c6a     Total:1      MisBP:0   MisRate:0.00%    MPKI:0.00
PC:10a50     Total:1      MisBP:0   MisRate:0.00%    MPKI:0.00
PC:11c62     Total:8731002      MisBP:0   MisRate:0.00%    MPKI:0.00
PC:10a4e     Total:24      MisBP:0   MisRate:0.00%    MPKI:0.00
PC:11c60     Total:8732192      MisBP:0   MisRate:0.00%    MPKI:0.00
PC:10a4c     Total:24      MisBP:0   MisRate:0.00%    MPKI:0.00
PC:11c5e     Total:8734068      MisBP:0   MisRate:0.00%    MPKI:0.00
PC:109fe     Total:40756      MisBP:0   MisRate:0.00%    MPKI:0.00
PC:109f6     Total:1      MisBP:0   MisRate:0.00%    MPKI:0.00
PC:11ab6     Total:1      MisBP:0   MisRate:0.00%    MPKI:0.00
PC:11cb8     Total:5      MisBP:0   MisRate:0.00%    MPKI:0.00
PC:119b4     Total:1      MisBP:0   MisRate:0.00%    MPKI:0.00
PC:10c2e     Total:50290      MisBP:0   MisRate:0.00%    MPKI:0.00
PC:10c62     Total:1      MisBP:0   MisRate:0.00%    MPKI:0.00
PC:11d3a     Total:1      MisBP:0   MisRate:0.00%    MPKI:0.00
PC:10a5c     Total:1      MisBP:0   MisRate:0.00%    MPKI:0.00
PC:10c5e     Total:50286      MisBP:0   MisRate:0.00%    MPKI:0.00
PC:10c4e     Total:50287      MisBP:0   MisRate:0.00%    MPKI:0.00
PC:11d36     Total:1      MisBP:0   MisRate:0.00%    MPKI:0.00
PC:11c38     Total:1      MisBP:0   MisRate:0.00%    MPKI:0.00
PC:10a26     Total:123453      MisBP:0   MisRate:0.00%    MPKI:0.00
PC:10a5a     Total:1      MisBP:0   MisRate:0.00%    MPKI:0.00
PC:11c6c     Total:8718701      MisBP:0   MisRate:0.00%    MPKI:0.00
PC:10c5c     Total:50286      MisBP:0   MisRate:0.00%    MPKI:0.00
PC:11d34     Total:1      MisBP:0   MisRate:0.00%    MPKI:0.00
PC:10c26     Total:4      MisBP:0   MisRate:0.00%    MPKI:0.00
PC:10a24     Total:123540      MisBP:0   MisRate:0.00%    MPKI:0.00
PC:10a58     Total:4      MisBP:0   MisRate:0.00%    MPKI:0.00
PC:11c4a     Total:8723527      MisBP:0   MisRate:0.00%    MPKI:0.00
PC:168ac     Total:1      MisBP:0   MisRate:0.00%    MPKI:0.00
PC:168a0     Total:8      MisBP:0   MisRate:0.00%    MPKI:0.00
PC:10d2a     Total:12      MisBP:0   MisRate:0.00%    MPKI:0.00
PC:10d28     Total:3      MisBP:0   MisRate:0.00%    MPKI:0.00
PC:10d24     Total:2      MisBP:0   MisRate:0.00%    MPKI:0.00
PC:10d20     Total:2      MisBP:0   MisRate:0.00%    MPKI:0.00
PC:10d1e     Total:2      MisBP:0   MisRate:0.00%    MPKI:0.00
PC:10d1c     Total:2      MisBP:0   MisRate:0.00%    MPKI:0.00
PC:10a42     Total:21      MisBP:0   MisRate:0.00%    MPKI:0.00
PC:10a3e     Total:44      MisBP:0   MisRate:0.00%    MPKI:0.00
PC:10c40     Total:50287      MisBP:0   MisRate:0.00%    MPKI:0.00
PC:11c4e     Total:8748192      MisBP:0   MisRate:0.00%    MPKI:0.00
PC:10c3e     Total:50291      MisBP:0   MisRate:0.00%    MPKI:0.00
PC:10a3a     Total:33      MisBP:0   MisRate:0.00%    MPKI:0.00
PC:10c3c     Total:50291      MisBP:0   MisRate:0.00%    MPKI:0.00
PC:11c5a     Total:8739835      MisBP:0   MisRate:0.00%    MPKI:0.00
PC:10c3a     Total:50291      MisBP:0   MisRate:0.00%    MPKI:0.00
PC:10a36     Total:468767      MisBP:0   MisRate:0.00%    MPKI:0.00
PC:11c48     Total:8725977      MisBP:0   MisRate:0.00%    MPKI:0.00
PC:10c38     Total:50291      MisBP:0   MisRate:0.00%    MPKI:0.00
PC:10a34     Total:470184      MisBP:0   MisRate:0.00%    MPKI:0.00
PC:11c46     Total:8709633      MisBP:0   MisRate:0.00%    MPKI:0.00
PC:10c36     Total:50291      MisBP:0   MisRate:0.00%    MPKI:0.00
PC:10c34     Total:50291      MisBP:0   MisRate:0.00%    MPKI:0.00
PC:10a30     Total:461077      MisBP:0   MisRate:0.00%    MPKI:0.00
PC:11c42     Total:8710380      MisBP:0   MisRate:0.00%    MPKI:0.00
PC:10a2e     Total:466076      MisBP:0   MisRate:0.00%    MPKI:0.00
PC:11c40     Total:8710734      MisBP:0   MisRate:0.00%    MPKI:0.00
PC:10c30     Total:50290      MisBP:0   MisRate:0.00%    MPKI:0.00
PC:10a2c     Total:37172      MisBP:0   MisRate:0.00%    MPKI:0.00
PC:11c3e     Total:8713255      MisBP:0   MisRate:0.00%    MPKI:0.00
PC:10a5e     Total:1      MisBP:0   MisRate:0.00%    MPKI:0.00
PC:162be     Total:1      MisBP:0   MisRate:0.00%    MPKI:0.00
PC:11c76     Total:33      MisBP:0   MisRate:0.00%    MPKI:0.00
PC:10a64     Total:1      MisBP:0   MisRate:0.00%    MPKI:0.00
PC:168a8     Total:1      MisBP:0   MisRate:0.00%    MPKI:0.00
PC:10c66     Total:1      MisBP:0   MisRate:0.00%    MPKI:0.00
PC:10cbe     Total:4      MisBP:0   MisRate:0.00%    MPKI:0.00
PC:11acc     Total:9      MisBP:0   MisRate:0.00%    MPKI:0.00
PC:162bc     Total:1      MisBP:0   MisRate:0.00%    MPKI:0.00
PC:11cce     Total:24      MisBP:0   MisRate:0.00%    MPKI:0.00
PC:109f4     Total:1      MisBP:0   MisRate:0.00%    MPKI:0.00
PC:10a62     Total:1      MisBP:0   MisRate:0.00%    MPKI:0.00
PC:109f8     Total:1      MisBP:0   MisRate:0.00%    MPKI:0.00
PC:162ba     Total:2      MisBP:0   MisRate:0.00%    MPKI:0.00
PC:11c70     Total:9585      MisBP:0   MisRate:0.00%    MPKI:0.00
PC:10c5a     Total:50286      MisBP:0   MisRate:0.00%    MPKI:0.00
PC:168a4     Total:1      MisBP:0   MisRate:0.00%    MPKI:0.00
PC:162b6     Total:1      MisBP:0   MisRate:0.00%    MPKI:0.00
PC:11c90     Total:33      MisBP:0   MisRate:0.00%    MPKI:0.00
PC:10c80     Total:3      MisBP:0   MisRate:0.00%    MPKI:0.00
PC:10c48     Total:50287      MisBP:0   MisRate:0.00%    MPKI:0.00
PC:10a44     Total:41318      MisBP:0   MisRate:0.00%    MPKI:0.00
PC:10c46     Total:50287      MisBP:0   MisRate:0.00%    MPKI:0.00
PC:162b4     Total:5      MisBP:0   MisRate:0.00%    MPKI:0.00
PC:11d30     Total:1      MisBP:0   MisRate:0.00%    MPKI:0.00
PC:109f2     Total:1      MisBP:0   MisRate:0.00%    MPKI:0.00
PC:10a46     Total:41318      MisBP:0   MisRate:0.00%    MPKI:0.00
PC:11ccc     Total:3      MisBP:0   MisRate:0.00%    MPKI:0.00
PC:11c58     Total:8742530      MisBP:0   MisRate:0.00%    MPKI:0.00
PC:11c92     Total:33      MisBP:0   MisRate:0.00%    MPKI:0.00
PC:10c78     Total:3      MisBP:0   MisRate:0.00%    MPKI:0.00
PC:10c20     Total:12      MisBP:0   MisRate:0.00%    MPKI:0.00
PC:10a22     Total:123570      MisBP:0   MisRate:0.00%    MPKI:0.00
PC:10a1e     Total:124497      MisBP:0   MisRate:0.00%    MPKI:0.00
PC:11c8e     Total:33      MisBP:0   MisRate:0.00%    MPKI:0.00
PC:10c7e     Total:6      MisBP:0   MisRate:0.00%    MPKI:0.00
PC:10c24     Total:11      MisBP:0   MisRate:0.00%    MPKI:0.00
PC:11c6a     Total:8720634      MisBP:0   MisRate:0.00%    MPKI:0.00
PC:11c30     Total:28706      MisBP:0   MisRate:0.00%    MPKI:0.00
PC:11c8a     Total:33      MisBP:0   MisRate:0.00%    MPKI:0.00
PC:11c88     Total:33      MisBP:0   MisRate:0.00%    MPKI:0.00
PC:11c66     Total:8724731      MisBP:0   MisRate:0.00%    MPKI:0.00
PC:11c86     Total:33      MisBP:0   MisRate:0.00%    MPKI:0.00
PC:10c84     Total:18      MisBP:0   MisRate:0.00%    MPKI:0.00
PC:11c82     Total:33      MisBP:0   MisRate:0.00%    MPKI:0.00
PC:10c72     Total:3      MisBP:0   MisRate:0.00%    MPKI:0.00
PC:11c34     Total:28706      MisBP:0   MisRate:0.00%    MPKI:0.00
PC:11c80     Total:33      MisBP:0   MisRate:0.00%    MPKI:0.00
PC:11c7c     Total:33      MisBP:0   MisRate:0.00%    MPKI:0.00
PC:11c78     Total:33      MisBP:0   MisRate:0.00%    MPKI:0.00
PC:10a66     Total:1      MisBP:0   MisRate:0.00%    MPKI:0.00
PC:109fc     Total:23      MisBP:0   MisRate:0.00%    MPKI:0.00
PC:10a54     Total:1      MisBP:0   MisRate:0.00%    MPKI:0.00
PC:10cc4     Total:4      MisBP:1   MisRate:25.00%    MPKI:0.00
PC:11c36     Total:28706      MisBP:1   MisRate:0.00%    MPKI:0.00
PC:11cb6     Total:5      MisBP:1   MisRate:20.00%    MPKI:0.00
PC:119a8     Total:1      MisBP:1   MisRate:100.00%    MPKI:0.00
PC:10c60     Total:50286      MisBP:1   MisRate:0.00%    MPKI:0.00
PC:10c32     Total:50290      MisBP:1   MisRate:0.00%    MPKI:0.00
PC:10c22     Total:11      MisBP:1   MisRate:9.09%    MPKI:0.00
PC:11ad6     Total:164      MisBP:2   MisRate:1.22%    MPKI:0.00
PC:11ca8     Total:28714      MisBP:2   MisRate:0.01%    MPKI:0.00
PC:10c52     Total:50287      MisBP:2   MisRate:0.00%    MPKI:0.00
PC:11d3e     Total:17      MisBP:2   MisRate:11.76%    MPKI:0.00
PC:10cfa     Total:5895996      MisBP:2   MisRate:0.00%    MPKI:0.00
PC:10a48     Total:41260      MisBP:4   MisRate:0.01%    MPKI:0.00
PC:10a38     Total:466960      MisBP:10   MisRate:0.00%    MPKI:0.00
PC:10a3c     Total:33      MisBP:11   MisRate:33.33%    MPKI:0.00
PC:11c74     Total:9585      MisBP:31   MisRate:0.32%    MPKI:0.00
PC:11c94     Total:33      MisBP:32   MisRate:96.97%    MPKI:0.00
PC:10cca     Total:33766      MisBP:39   MisRate:0.12%    MPKI:0.00
PC:109fa     Total:32852      MisBP:889   MisRate:2.71%    MPKI:0.00
PC:10a28     Total:123404      MisBP:1122   MisRate:0.91%    MPKI:0.00
PC:10a0e     Total:39553      MisBP:5610   MisRate:14.18%    MPKI:0.02
PC:11c56     Total:8744613      MisBP:7987   MisRate:0.09%    MPKI:0.03
PC:11c6e     Total:8716734      MisBP:9570   MisRate:0.11%    MPKI:0.03
PC:10a16     Total:161442      MisBP:10273   MisRate:6.36%    MPKI:0.03
PC:10a32     Total:455289      MisBP:20396   MisRate:4.48%    MPKI:0.07
PC:10cf0     Total:5904127      MisBP:26489   MisRate:0.45%    MPKI:0.09
PC:11c4c     Total:8721002      MisBP:28672   MisRate:0.33%    MPKI:0.09
Totfetch:319850144  TotInsts:310000004  TotMis : inf%   MPKI : 0.36
=============finish sim!!!!!!=============
Done running SimPoint!
