Global frequency set at 1000000000000 ticks per second
 Register [printBranch()] ExitCallback !!!!!!! 
gem5 Simulator System.  https://www.gem5.org
gem5 is copyrighted software; use the --copyright option for details.

gem5 version 22.0.0.2
gem5 compiled Sep  7 2022 00:42:18
gem5 started Sep  7 2022 04:09:04
gem5 executing on a100, pid 2777579
command line: /data/zxf/gem5/gem5-prof/build/ARM/gem5.fast --outdir=/data/zxf/checkpoint/spec2006/473.astar/prof/astar_ckp_6 /data/zxf/gem5/gem5-prof/configs/example/se.py --cpu-type O3CPU --cpu-clock 1GHz --num-cpu 1 --l1d-hwp-type=BOPPrefetcher --caches --l2cache --l1i_size 32kB --l1d_size 32kB --l2_size 1MB --l1i_assoc 8 --l1d_assoc 8 --l2_assoc 16 --cacheline_size 64 --mem-type DDR3_2133_8x8 --mem-size 16GB --restore-simpoint-checkpoint -r 6 --checkpoint-dir /data/zxf/checkpoint/spec2006/473.astar/ckpt -c astar_base.gcc41-64bit -o rivers.cfg

info: Standard input is not a terminal, disabling listeners.
Resuming from /data/zxf/checkpoint/spec2006/473.astar/ckpt/cpt.simpoint_05_inst_225290000000_weight_0.108171_interval_300000000_warmup_10000000
Resuming from SimPoint #5, start_inst:225290000000, weight:0.108171, interval:300000000, warmup:10000000
Switch at curTick count:10000
Switched CPUS @ tick 149388325600500
[(<m5.objects.ArmCPU.ArmAtomicSimpleCPU object at 0x7f32ccf56bb0>, <m5.objects.ArmCPU.ArmO3CPU object at 0x7f32ccf6ee20>)]
switching cpus



+++++++++++++++++++++++++zxf print simpoint+++++++++++++++++++++++++++
Warmed up! Dumping and resetting stats!


=============start sim!!!!!!=============
PC:13c5c     Total:47      MisBP:0   MisRate:0.00%    MPKI:0.00
PC:324ac     Total:2      MisBP:0   MisRate:0.00%    MPKI:0.00
PC:13a0e     Total:46      MisBP:0   MisRate:0.00%    MPKI:0.00
PC:13a06     Total:46      MisBP:0   MisRate:0.00%    MPKI:0.00
PC:2c88e     Total:15      MisBP:0   MisRate:0.00%    MPKI:0.00
PC:324a0     Total:2      MisBP:0   MisRate:0.00%    MPKI:0.00
PC:13a02     Total:46      MisBP:0   MisRate:0.00%    MPKI:0.00
PC:2d3fc     Total:1      MisBP:0   MisRate:0.00%    MPKI:0.00
PC:2c884     Total:15      MisBP:0   MisRate:0.00%    MPKI:0.00
PC:2d9d8     Total:9      MisBP:0   MisRate:0.00%    MPKI:0.00
PC:32380     Total:2      MisBP:0   MisRate:0.00%    MPKI:0.00
PC:139f8     Total:46      MisBP:0   MisRate:0.00%    MPKI:0.00
PC:2d3f2     Total:2      MisBP:0   MisRate:0.00%    MPKI:0.00
PC:13c74     Total:2      MisBP:0   MisRate:0.00%    MPKI:0.00
PC:13c6e     Total:2      MisBP:0   MisRate:0.00%    MPKI:0.00
PC:2c89a     Total:12      MisBP:0   MisRate:0.00%    MPKI:0.00
PC:13c54     Total:1      MisBP:0   MisRate:0.00%    MPKI:0.00
PC:13c50     Total:1      MisBP:0   MisRate:0.00%    MPKI:0.00
PC:13816     Total:5181654      MisBP:0   MisRate:0.00%    MPKI:0.00
PC:2cd32     Total:21      MisBP:0   MisRate:0.00%    MPKI:0.00
PC:13886     Total:1      MisBP:0   MisRate:0.00%    MPKI:0.00
PC:13884     Total:1      MisBP:0   MisRate:0.00%    MPKI:0.00
PC:13882     Total:1      MisBP:0   MisRate:0.00%    MPKI:0.00
PC:13880     Total:160      MisBP:0   MisRate:0.00%    MPKI:0.00
PC:1387c     Total:178      MisBP:0   MisRate:0.00%    MPKI:0.00
PC:1387a     Total:178      MisBP:0   MisRate:0.00%    MPKI:0.00
PC:13878     Total:178      MisBP:0   MisRate:0.00%    MPKI:0.00
PC:13c7a     Total:2      MisBP:0   MisRate:0.00%    MPKI:0.00
PC:13876     Total:178      MisBP:0   MisRate:0.00%    MPKI:0.00
PC:13a7c     Total:3444      MisBP:0   MisRate:0.00%    MPKI:0.00
PC:2f476     Total:3      MisBP:0   MisRate:0.00%    MPKI:0.00
PC:13a86     Total:3265      MisBP:0   MisRate:0.00%    MPKI:0.00
PC:2f474     Total:3      MisBP:0   MisRate:0.00%    MPKI:0.00
PC:13a84     Total:3292      MisBP:0   MisRate:0.00%    MPKI:0.00
PC:13a96     Total:3176      MisBP:0   MisRate:0.00%    MPKI:0.00
PC:13a94     Total:3182      MisBP:0   MisRate:0.00%    MPKI:0.00
PC:2f484     Total:2      MisBP:0   MisRate:0.00%    MPKI:0.00
PC:2f470     Total:3      MisBP:0   MisRate:0.00%    MPKI:0.00
PC:13a80     Total:3292      MisBP:0   MisRate:0.00%    MPKI:0.00
PC:13a92     Total:3251      MisBP:0   MisRate:0.00%    MPKI:0.00
PC:2f46e     Total:3      MisBP:0   MisRate:0.00%    MPKI:0.00
PC:13a90     Total:3260      MisBP:0   MisRate:0.00%    MPKI:0.00
PC:2f480     Total:4      MisBP:0   MisRate:0.00%    MPKI:0.00
PC:2f46c     Total:3      MisBP:0   MisRate:0.00%    MPKI:0.00
PC:13872     Total:178      MisBP:0   MisRate:0.00%    MPKI:0.00
PC:2f46a     Total:3      MisBP:0   MisRate:0.00%    MPKI:0.00
PC:13a8c     Total:3265      MisBP:0   MisRate:0.00%    MPKI:0.00
PC:2f466     Total:3      MisBP:0   MisRate:0.00%    MPKI:0.00
PC:13a76     Total:3457      MisBP:0   MisRate:0.00%    MPKI:0.00
PC:13a88     Total:3265      MisBP:0   MisRate:0.00%    MPKI:0.00
PC:2f464     Total:3      MisBP:0   MisRate:0.00%    MPKI:0.00
PC:13a74     Total:3457      MisBP:0   MisRate:0.00%    MPKI:0.00
PC:2f462     Total:3      MisBP:0   MisRate:0.00%    MPKI:0.00
PC:13a72     Total:3457      MisBP:0   MisRate:0.00%    MPKI:0.00
PC:2c8b0     Total:12      MisBP:0   MisRate:0.00%    MPKI:0.00
PC:10ec0     Total:5      MisBP:0   MisRate:0.00%    MPKI:0.00
PC:13a24     Total:13      MisBP:0   MisRate:0.00%    MPKI:0.00
PC:2cf40     Total:13      MisBP:0   MisRate:0.00%    MPKI:0.00
PC:2d514     Total:25      MisBP:0   MisRate:0.00%    MPKI:0.00
PC:136f6     Total:3177426      MisBP:0   MisRate:0.00%    MPKI:0.00
PC:136f4     Total:3178816      MisBP:0   MisRate:0.00%    MPKI:0.00
PC:136f2     Total:3179393      MisBP:0   MisRate:0.00%    MPKI:0.00
PC:2d526     Total:1      MisBP:0   MisRate:0.00%    MPKI:0.00
PC:136ee     Total:3184335      MisBP:0   MisRate:0.00%    MPKI:0.00
PC:136ea     Total:3185432      MisBP:0   MisRate:0.00%    MPKI:0.00
PC:136e6     Total:3274462      MisBP:0   MisRate:0.00%    MPKI:0.00
PC:2cc70     Total:12      MisBP:0   MisRate:0.00%    MPKI:0.00
PC:13754     Total:2933320      MisBP:0   MisRate:0.00%    MPKI:0.00
PC:2d51a     Total:25      MisBP:0   MisRate:0.00%    MPKI:0.00
PC:136e4     Total:3275443      MisBP:0   MisRate:0.00%    MPKI:0.00
PC:2d518     Total:25      MisBP:0   MisRate:0.00%    MPKI:0.00
PC:136e0     Total:3278050      MisBP:0   MisRate:0.00%    MPKI:0.00
PC:2cc6a     Total:12      MisBP:0   MisRate:0.00%    MPKI:0.00
PC:136fa     Total:3176271      MisBP:0   MisRate:0.00%    MPKI:0.00
PC:136d8     Total:3293845      MisBP:0   MisRate:0.00%    MPKI:0.00
PC:2d50c     Total:23      MisBP:0   MisRate:0.00%    MPKI:0.00
PC:136ce     Total:3385897      MisBP:0   MisRate:0.00%    MPKI:0.00
PC:2cc58     Total:12      MisBP:0   MisRate:0.00%    MPKI:0.00
PC:2d502     Total:22      MisBP:0   MisRate:0.00%    MPKI:0.00
PC:136ca     Total:3399806      MisBP:0   MisRate:0.00%    MPKI:0.00
PC:136b2     Total:3601455      MisBP:0   MisRate:0.00%    MPKI:0.00
PC:327e0     Total:1      MisBP:0   MisRate:0.00%    MPKI:0.00
PC:13c64     Total:8      MisBP:0   MisRate:0.00%    MPKI:0.00
PC:13860     Total:1644      MisBP:0   MisRate:0.00%    MPKI:0.00
PC:137b0     Total:851434      MisBP:0   MisRate:0.00%    MPKI:0.00
PC:2cd3a     Total:26      MisBP:0   MisRate:0.00%    MPKI:0.00
PC:1381e     Total:2458043      MisBP:0   MisRate:0.00%    MPKI:0.00
PC:1397a     Total:39851      MisBP:0   MisRate:0.00%    MPKI:0.00
PC:1386e     Total:178      MisBP:0   MisRate:0.00%    MPKI:0.00
PC:1386c     Total:178      MisBP:0   MisRate:0.00%    MPKI:0.00
PC:138aa     Total:23278      MisBP:0   MisRate:0.00%    MPKI:0.00
PC:1016c     Total:3      MisBP:0   MisRate:0.00%    MPKI:0.00
PC:138a4     Total:23436      MisBP:0   MisRate:0.00%    MPKI:0.00
PC:1015c     Total:3      MisBP:0   MisRate:0.00%    MPKI:0.00
PC:13896     Total:39902      MisBP:0   MisRate:0.00%    MPKI:0.00
PC:13892     Total:39872      MisBP:0   MisRate:0.00%    MPKI:0.00
PC:10154     Total:3      MisBP:0   MisRate:0.00%    MPKI:0.00
PC:1388e     Total:39889      MisBP:0   MisRate:0.00%    MPKI:0.00
PC:10150     Total:3      MisBP:0   MisRate:0.00%    MPKI:0.00
PC:1388c     Total:199455      MisBP:0   MisRate:0.00%    MPKI:0.00
PC:13888     Total:39893      MisBP:0   MisRate:0.00%    MPKI:0.00
PC:13980     Total:39733      MisBP:0   MisRate:0.00%    MPKI:0.00
PC:13a9c     Total:3176      MisBP:0   MisRate:0.00%    MPKI:0.00
PC:13c68     Total:8      MisBP:0   MisRate:0.00%    MPKI:0.00
PC:2d39e     Total:18      MisBP:0   MisRate:0.00%    MPKI:0.00
PC:1399c     Total:39704      MisBP:0   MisRate:0.00%    MPKI:0.00
PC:13996     Total:39733      MisBP:0   MisRate:0.00%    MPKI:0.00
PC:1398e     Total:39734      MisBP:0   MisRate:0.00%    MPKI:0.00
PC:13712     Total:21083287      MisBP:0   MisRate:0.00%    MPKI:0.00
PC:13710     Total:3068353      MisBP:0   MisRate:0.00%    MPKI:0.00
PC:1370c     Total:3069752      MisBP:0   MisRate:0.00%    MPKI:0.00
PC:1370a     Total:3071670      MisBP:0   MisRate:0.00%    MPKI:0.00
PC:13706     Total:3072744      MisBP:0   MisRate:0.00%    MPKI:0.00
PC:13702     Total:3073784      MisBP:0   MisRate:0.00%    MPKI:0.00
PC:136fe     Total:3081751      MisBP:0   MisRate:0.00%    MPKI:0.00
PC:136fc     Total:3173467      MisBP:0   MisRate:0.00%    MPKI:0.00
PC:2c9fe     Total:2      MisBP:0   MisRate:0.00%    MPKI:0.00
PC:13b08     Total:9609      MisBP:0   MisRate:0.00%    MPKI:0.00
PC:13b06     Total:9609      MisBP:0   MisRate:0.00%    MPKI:0.00
PC:13b02     Total:9612      MisBP:0   MisRate:0.00%    MPKI:0.00
PC:2c98c     Total:12      MisBP:0   MisRate:0.00%    MPKI:0.00
PC:13b00     Total:9614      MisBP:0   MisRate:0.00%    MPKI:0.00
PC:2ca0a     Total:1      MisBP:0   MisRate:0.00%    MPKI:0.00
PC:3261c     Total:23      MisBP:0   MisRate:0.00%    MPKI:0.00
PC:13b7e     Total:11      MisBP:0   MisRate:0.00%    MPKI:0.00
PC:13b7c     Total:11      MisBP:0   MisRate:0.00%    MPKI:0.00
PC:2ca06     Total:1      MisBP:0   MisRate:0.00%    MPKI:0.00
PC:11016     Total:11      MisBP:0   MisRate:0.00%    MPKI:0.00
PC:32618     Total:23      MisBP:0   MisRate:0.00%    MPKI:0.00
PC:13b7a     Total:11      MisBP:0   MisRate:0.00%    MPKI:0.00
PC:13b76     Total:11      MisBP:0   MisRate:0.00%    MPKI:0.00
PC:2c994     Total:12      MisBP:0   MisRate:0.00%    MPKI:0.00
PC:1100e     Total:11      MisBP:0   MisRate:0.00%    MPKI:0.00
PC:32610     Total:23      MisBP:0   MisRate:0.00%    MPKI:0.00
PC:13b72     Total:16      MisBP:0   MisRate:0.00%    MPKI:0.00
PC:2c9fc     Total:2      MisBP:0   MisRate:0.00%    MPKI:0.00
PC:13b70     Total:16      MisBP:0   MisRate:0.00%    MPKI:0.00
PC:1101c     Total:11      MisBP:0   MisRate:0.00%    MPKI:0.00
PC:2c9f8     Total:2      MisBP:0   MisRate:0.00%    MPKI:0.00
PC:13b6c     Total:63      MisBP:0   MisRate:0.00%    MPKI:0.00
PC:2c9f4     Total:2      MisBP:0   MisRate:0.00%    MPKI:0.00
PC:13b68     Total:63      MisBP:0   MisRate:0.00%    MPKI:0.00
PC:13b66     Total:13183      MisBP:0   MisRate:0.00%    MPKI:0.00
PC:11012     Total:11      MisBP:0   MisRate:0.00%    MPKI:0.00
PC:32614     Total:23      MisBP:0   MisRate:0.00%    MPKI:0.00
PC:325bc     Total:24      MisBP:0   MisRate:0.00%    MPKI:0.00
PC:13b2e     Total:14473      MisBP:0   MisRate:0.00%    MPKI:0.00
PC:2c9b8     Total:14      MisBP:0   MisRate:0.00%    MPKI:0.00
PC:13b2c     Total:14473      MisBP:0   MisRate:0.00%    MPKI:0.00
PC:2c9b6     Total:14      MisBP:0   MisRate:0.00%    MPKI:0.00
PC:325c8     Total:24      MisBP:0   MisRate:0.00%    MPKI:0.00
PC:13b2a     Total:14467      MisBP:0   MisRate:0.00%    MPKI:0.00
PC:2c9b2     Total:2      MisBP:0   MisRate:0.00%    MPKI:0.00
PC:325c4     Total:24      MisBP:0   MisRate:0.00%    MPKI:0.00
PC:13b26     Total:14545      MisBP:0   MisRate:0.00%    MPKI:0.00
PC:13b24     Total:14547      MisBP:0   MisRate:0.00%    MPKI:0.00
PC:2c9ae     Total:2      MisBP:0   MisRate:0.00%    MPKI:0.00
PC:325c0     Total:24      MisBP:0   MisRate:0.00%    MPKI:0.00
PC:13b20     Total:9180      MisBP:0   MisRate:0.00%    MPKI:0.00
PC:2c9aa     Total:2      MisBP:0   MisRate:0.00%    MPKI:0.00
PC:2c9f0     Total:2      MisBP:0   MisRate:0.00%    MPKI:0.00
PC:13b1e     Total:9198      MisBP:0   MisRate:0.00%    MPKI:0.00
PC:13b1c     Total:9198      MisBP:0   MisRate:0.00%    MPKI:0.00
PC:2c9a4     Total:2      MisBP:0   MisRate:0.00%    MPKI:0.00
PC:13b18     Total:9202      MisBP:0   MisRate:0.00%    MPKI:0.00
PC:2c9a2     Total:2      MisBP:0   MisRate:0.00%    MPKI:0.00
PC:325b4     Total:24      MisBP:0   MisRate:0.00%    MPKI:0.00
PC:13b16     Total:9202      MisBP:0   MisRate:0.00%    MPKI:0.00
PC:13b14     Total:9578      MisBP:0   MisRate:0.00%    MPKI:0.00
PC:2c99e     Total:2      MisBP:0   MisRate:0.00%    MPKI:0.00
PC:325b0     Total:24      MisBP:0   MisRate:0.00%    MPKI:0.00
PC:13b12     Total:9578      MisBP:0   MisRate:0.00%    MPKI:0.00
PC:13b0e     Total:9592      MisBP:0   MisRate:0.00%    MPKI:0.00
PC:13b0c     Total:9592      MisBP:0   MisRate:0.00%    MPKI:0.00
PC:2f496     Total:17      MisBP:0   MisRate:0.00%    MPKI:0.00
PC:13aca     Total:48509      MisBP:0   MisRate:0.00%    MPKI:0.00
PC:13ac8     Total:48515      MisBP:0   MisRate:0.00%    MPKI:0.00
PC:2f4a4     Total:17      MisBP:0   MisRate:0.00%    MPKI:0.00
PC:13ab4     Total:12496      MisBP:0   MisRate:0.00%    MPKI:0.00
PC:13ac6     Total:48526      MisBP:0   MisRate:0.00%    MPKI:0.00
PC:2f4a2     Total:17      MisBP:0   MisRate:0.00%    MPKI:0.00
PC:13ab2     Total:12496      MisBP:0   MisRate:0.00%    MPKI:0.00
PC:13ac4     Total:11838      MisBP:0   MisRate:0.00%    MPKI:0.00
PC:2f4a0     Total:17      MisBP:0   MisRate:0.00%    MPKI:0.00
PC:13ab0     Total:3057      MisBP:0   MisRate:0.00%    MPKI:0.00
PC:13ac2     Total:11840      MisBP:0   MisRate:0.00%    MPKI:0.00
PC:2f49a     Total:34      MisBP:0   MisRate:0.00%    MPKI:0.00
PC:13aaa     Total:3155      MisBP:0   MisRate:0.00%    MPKI:0.00
PC:13abc     Total:12492      MisBP:0   MisRate:0.00%    MPKI:0.00
PC:13ab8     Total:12496      MisBP:0   MisRate:0.00%    MPKI:0.00
PC:13aa6     Total:3175      MisBP:0   MisRate:0.00%    MPKI:0.00
PC:2f492     Total:17      MisBP:0   MisRate:0.00%    MPKI:0.00
PC:13aa2     Total:3175      MisBP:0   MisRate:0.00%    MPKI:0.00
PC:2f490     Total:17      MisBP:0   MisRate:0.00%    MPKI:0.00
PC:13aa0     Total:3176      MisBP:0   MisRate:0.00%    MPKI:0.00
PC:2f48e     Total:17      MisBP:0   MisRate:0.00%    MPKI:0.00
PC:2f48a     Total:17      MisBP:0   MisRate:0.00%    MPKI:0.00
PC:13aac     Total:3060      MisBP:0   MisRate:0.00%    MPKI:0.00
PC:2f488     Total:17      MisBP:0   MisRate:0.00%    MPKI:0.00
PC:13a98     Total:3176      MisBP:0   MisRate:0.00%    MPKI:0.00
PC:2f47e     Total:3      MisBP:0   MisRate:0.00%    MPKI:0.00
PC:13a8e     Total:3264      MisBP:0   MisRate:0.00%    MPKI:0.00
PC:2f47a     Total:3      MisBP:0   MisRate:0.00%    MPKI:0.00
PC:13ae6     Total:10749      MisBP:0   MisRate:0.00%    MPKI:0.00
PC:13b64     Total:13183      MisBP:0   MisRate:0.00%    MPKI:0.00
PC:13b62     Total:13225      MisBP:0   MisRate:0.00%    MPKI:0.00
PC:13b60     Total:13225      MisBP:0   MisRate:0.00%    MPKI:0.00
PC:13afe     Total:10317      MisBP:0   MisRate:0.00%    MPKI:0.00
PC:2c986     Total:21      MisBP:0   MisRate:0.00%    MPKI:0.00
PC:32598     Total:24      MisBP:0   MisRate:0.00%    MPKI:0.00
PC:13afa     Total:10316      MisBP:0   MisRate:0.00%    MPKI:0.00
PC:13af8     Total:10324      MisBP:0   MisRate:0.00%    MPKI:0.00
PC:13af6     Total:10325      MisBP:0   MisRate:0.00%    MPKI:0.00
PC:13af4     Total:10586      MisBP:0   MisRate:0.00%    MPKI:0.00
PC:13af0     Total:10586      MisBP:0   MisRate:0.00%    MPKI:0.00
PC:13aee     Total:10594      MisBP:0   MisRate:0.00%    MPKI:0.00
PC:13aea     Total:10615      MisBP:0   MisRate:0.00%    MPKI:0.00
PC:2d5e4     Total:1      MisBP:0   MisRate:0.00%    MPKI:0.00
PC:13ae4     Total:10756      MisBP:0   MisRate:0.00%    MPKI:0.00
PC:13ae2     Total:10756      MisBP:0   MisRate:0.00%    MPKI:0.00
PC:13ade     Total:10758      MisBP:0   MisRate:0.00%    MPKI:0.00
PC:13ada     Total:46053      MisBP:0   MisRate:0.00%    MPKI:0.00
PC:13ad6     Total:56603      MisBP:0   MisRate:0.00%    MPKI:0.00
PC:13ad4     Total:58745      MisBP:0   MisRate:0.00%    MPKI:0.00
PC:2f4b0     Total:6      MisBP:0   MisRate:0.00%    MPKI:0.00
PC:2f4ae     Total:1      MisBP:0   MisRate:0.00%    MPKI:0.00
PC:13abe     Total:11844      MisBP:0   MisRate:0.00%    MPKI:0.00
PC:13ad0     Total:59106      MisBP:0   MisRate:0.00%    MPKI:0.00
PC:13ace     Total:59154      MisBP:0   MisRate:0.00%    MPKI:0.00
PC:2f4aa     Total:2      MisBP:0   MisRate:0.00%    MPKI:0.00
PC:2f4a8     Total:1      MisBP:0   MisRate:0.00%    MPKI:0.00
PC:2d5aa     Total:34      MisBP:0   MisRate:0.00%    MPKI:0.00
PC:136da     Total:3289575      MisBP:0   MisRate:0.00%    MPKI:0.00
PC:2cc64     Total:12      MisBP:0   MisRate:0.00%    MPKI:0.00
PC:2d50e     Total:23      MisBP:0   MisRate:0.00%    MPKI:0.00
PC:2d8bc     Total:22      MisBP:0   MisRate:0.00%    MPKI:0.00
PC:138dc     Total:23182      MisBP:0   MisRate:0.00%    MPKI:0.00
PC:2cdf8     Total:1      MisBP:0   MisRate:0.00%    MPKI:0.00
PC:137de     Total:3774701      MisBP:0   MisRate:0.00%    MPKI:0.00
PC:13c6a     Total:8      MisBP:0   MisRate:0.00%    MPKI:0.00
PC:13866     Total:3123210      MisBP:0   MisRate:0.00%    MPKI:0.00
PC:138ac     Total:3081837      MisBP:0   MisRate:0.00%    MPKI:0.00
PC:138b0     Total:3079899      MisBP:0   MisRate:0.00%    MPKI:0.00
PC:13750     Total:29675139      MisBP:0   MisRate:0.00%    MPKI:0.00
PC:2cc6c     Total:12      MisBP:0   MisRate:0.00%    MPKI:0.00
PC:13c52     Total:1      MisBP:0   MisRate:0.00%    MPKI:0.00
PC:1377a     Total:862406      MisBP:0   MisRate:0.00%    MPKI:0.00
PC:2efa8     Total:21      MisBP:0   MisRate:0.00%    MPKI:0.00
PC:2cad4     Total:1      MisBP:0   MisRate:0.00%    MPKI:0.00
PC:136b0     Total:3602780      MisBP:0   MisRate:0.00%    MPKI:0.00
PC:2d4e4     Total:12      MisBP:0   MisRate:0.00%    MPKI:0.00
PC:330f6     Total:1      MisBP:0   MisRate:0.00%    MPKI:0.00
PC:138b2     Total:3080091      MisBP:0   MisRate:0.00%    MPKI:0.00
PC:2cdce     Total:5      MisBP:0   MisRate:0.00%    MPKI:0.00
PC:10174     Total:3      MisBP:0   MisRate:0.00%    MPKI:0.00
PC:137b4     Total:851266      MisBP:0   MisRate:0.00%    MPKI:0.00
PC:2d546     Total:33      MisBP:0   MisRate:0.00%    MPKI:0.00
PC:2cd3e     Total:25      MisBP:0   MisRate:0.00%    MPKI:0.00
PC:2d5e8     Total:1      MisBP:0   MisRate:0.00%    MPKI:0.00
PC:2d734     Total:22      MisBP:0   MisRate:0.00%    MPKI:0.00
PC:136c2     Total:3404607      MisBP:0   MisRate:0.00%    MPKI:0.00
PC:10aec     Total:9      MisBP:0   MisRate:0.00%    MPKI:0.00
PC:13766     Total:2872906      MisBP:0   MisRate:0.00%    MPKI:0.00
PC:136c6     Total:3400970      MisBP:0   MisRate:0.00%    MPKI:0.00
PC:327f4     Total:1      MisBP:0   MisRate:0.00%    MPKI:0.00
PC:138c8     Total:3099023      MisBP:0   MisRate:0.00%    MPKI:0.00
PC:137ca     Total:2895179      MisBP:0   MisRate:0.00%    MPKI:0.00
PC:1397e     Total:39811      MisBP:0   MisRate:0.00%    MPKI:0.00
PC:1377c     Total:862370      MisBP:0   MisRate:0.00%    MPKI:0.00
PC:2d5b0     Total:34      MisBP:0   MisRate:0.00%    MPKI:0.00
PC:2d8be     Total:22      MisBP:0   MisRate:0.00%    MPKI:0.00
PC:138de     Total:23182      MisBP:0   MisRate:0.00%    MPKI:0.00
PC:101a0     Total:1      MisBP:0   MisRate:0.00%    MPKI:0.00
PC:137e0     Total:3773470      MisBP:0   MisRate:0.00%    MPKI:0.00
PC:13762     Total:2890926      MisBP:0   MisRate:0.00%    MPKI:0.00
PC:10ada     Total:2779      MisBP:0   MisRate:0.00%    MPKI:0.00
PC:327f0     Total:2      MisBP:0   MisRate:0.00%    MPKI:0.00
PC:138c4     Total:3099071      MisBP:0   MisRate:0.00%    MPKI:0.00
PC:2d74c     Total:36      MisBP:0   MisRate:0.00%    MPKI:0.00
PC:10af2     Total:9      MisBP:0   MisRate:0.00%    MPKI:0.00
PC:136cc     Total:3392715      MisBP:0   MisRate:0.00%    MPKI:0.00
PC:2d500     Total:22      MisBP:0   MisRate:0.00%    MPKI:0.00
PC:138ce     Total:3098442      MisBP:0   MisRate:0.00%    MPKI:0.00
PC:2cdea     Total:1      MisBP:0   MisRate:0.00%    MPKI:0.00
PC:10190     Total:1      MisBP:0   MisRate:0.00%    MPKI:0.00
PC:137d0     Total:3780307      MisBP:0   MisRate:0.00%    MPKI:0.00
PC:1397c     Total:39850      MisBP:0   MisRate:0.00%    MPKI:0.00
PC:2d75a     Total:7      MisBP:0   MisRate:0.00%    MPKI:0.00
PC:10b00     Total:9      MisBP:0   MisRate:0.00%    MPKI:0.00
PC:136be     Total:3405283      MisBP:0   MisRate:0.00%    MPKI:0.00
PC:2d4ee     Total:12      MisBP:0   MisRate:0.00%    MPKI:0.00
PC:138bc     Total:3076721      MisBP:0   MisRate:0.00%    MPKI:0.00
PC:2cdd8     Total:1      MisBP:0   MisRate:0.00%    MPKI:0.00
PC:137be     Total:2979450      MisBP:0   MisRate:0.00%    MPKI:0.00
PC:1375c     Total:2905758      MisBP:0   MisRate:0.00%    MPKI:0.00
PC:13824     Total:2455079      MisBP:0   MisRate:0.00%    MPKI:0.00
PC:2c3ba     Total:1      MisBP:0   MisRate:0.00%    MPKI:0.00
PC:138be     Total:3057685      MisBP:0   MisRate:0.00%    MPKI:0.00
PC:10180     Total:1      MisBP:0   MisRate:0.00%    MPKI:0.00
PC:2d73e     Total:22      MisBP:0   MisRate:0.00%    MPKI:0.00
PC:1375e     Total:2898191      MisBP:0   MisRate:0.00%    MPKI:0.00
PC:2cc7a     Total:1      MisBP:0   MisRate:0.00%    MPKI:0.00
PC:13c60     Total:47      MisBP:0   MisRate:0.00%    MPKI:0.00
PC:1385c     Total:1645      MisBP:0   MisRate:0.00%    MPKI:0.00
PC:2cc44     Total:12      MisBP:0   MisRate:0.00%    MPKI:0.00
PC:327ec     Total:2      MisBP:0   MisRate:0.00%    MPKI:0.00
PC:2cc48     Total:12      MisBP:0   MisRate:0.00%    MPKI:0.00
PC:2d4f2     Total:23      MisBP:0   MisRate:0.00%    MPKI:0.00
PC:138c0     Total:3010504      MisBP:0   MisRate:0.00%    MPKI:0.00
PC:2cddc     Total:1      MisBP:0   MisRate:0.00%    MPKI:0.00
PC:137c2     Total:2906661      MisBP:0   MisRate:0.00%    MPKI:0.00
PC:137c4     Total:2902397      MisBP:0   MisRate:0.00%    MPKI:0.00
PC:137c8     Total:2902141      MisBP:0   MisRate:0.00%    MPKI:0.00
PC:137ce     Total:2891349      MisBP:0   MisRate:0.00%    MPKI:0.00
PC:137dc     Total:3775025      MisBP:0   MisRate:0.00%    MPKI:0.00
PC:137e4     Total:2882840      MisBP:0   MisRate:0.00%    MPKI:0.00
PC:137e6     Total:2882785      MisBP:0   MisRate:0.00%    MPKI:0.00
PC:137ea     Total:2881696      MisBP:0   MisRate:0.00%    MPKI:0.00
PC:2cc72     Total:12      MisBP:0   MisRate:0.00%    MPKI:0.00
PC:13c56     Total:7      MisBP:0   MisRate:0.00%    MPKI:0.00
PC:2efac     Total:82      MisBP:0   MisRate:0.00%    MPKI:0.00
PC:2cad8     Total:1      MisBP:0   MisRate:0.00%    MPKI:0.00
PC:14826     Total:25      MisBP:0   MisRate:0.00%    MPKI:0.00
PC:13852     Total:732553      MisBP:0   MisRate:0.00%    MPKI:0.00
PC:136b4     Total:3597527      MisBP:0   MisRate:0.00%    MPKI:0.00
PC:2cc3e     Total:12      MisBP:0   MisRate:0.00%    MPKI:0.00
PC:2d4e8     Total:12      MisBP:0   MisRate:0.00%    MPKI:0.00
PC:330fa     Total:1      MisBP:0   MisRate:0.00%    MPKI:0.00
PC:138b6     Total:3080062      MisBP:0   MisRate:0.00%    MPKI:0.00
PC:2cdd2     Total:5      MisBP:0   MisRate:0.00%    MPKI:0.00
PC:10178     Total:3      MisBP:0   MisRate:0.00%    MPKI:0.00
PC:137b8     Total:851138      MisBP:0   MisRate:0.00%    MPKI:0.00
PC:13756     Total:2933185      MisBP:0   MisRate:0.00%    MPKI:0.00
PC:2d746     Total:36      MisBP:0   MisRate:0.00%    MPKI:0.00
PC:138b8     Total:3079455      MisBP:0   MisRate:0.00%    MPKI:0.00
PC:137ba     Total:849408      MisBP:0   MisRate:0.00%    MPKI:0.00
PC:136b8     Total:3596201      MisBP:0   MisRate:0.00%    MPKI:0.00
PC:2d4ec     Total:12      MisBP:0   MisRate:0.00%    MPKI:0.00
PC:330fe     Total:1      MisBP:0   MisRate:0.00%    MPKI:0.00
PC:138ba     Total:3077547      MisBP:0   MisRate:0.00%    MPKI:0.00
PC:1017c     Total:2      MisBP:0   MisRate:0.00%    MPKI:0.00
PC:137bc     Total:2981424      MisBP:0   MisRate:0.00%    MPKI:0.00
PC:2d73a     Total:22      MisBP:0   MisRate:0.00%    MPKI:0.00
PC:1375a     Total:2915749      MisBP:0   MisRate:0.00%    MPKI:0.00
PC:2cc76     Total:1      MisBP:0   MisRate:0.00%    MPKI:0.00
PC:136ba     Total:3591635      MisBP:0   MisRate:0.00%    MPKI:0.00
PC:327e8     Total:1      MisBP:0   MisRate:0.00%    MPKI:0.00
PC:10b10     Total:8      MisBP:0   MisRate:0.00%    MPKI:0.00
PC:2d776     Total:8      MisBP:0   MisRate:0.00%    MPKI:0.00
PC:13796     Total:855464      MisBP:0   MisRate:0.00%    MPKI:0.00
PC:2d5ca     Total:30      MisBP:0   MisRate:0.00%    MPKI:0.00
PC:13792     Total:856327      MisBP:0   MisRate:0.00%    MPKI:0.00
PC:2d5c6     Total:30      MisBP:0   MisRate:0.00%    MPKI:0.00
PC:13992     Total:39733      MisBP:0   MisRate:0.00%    MPKI:0.00
PC:2d770     Total:8      MisBP:0   MisRate:0.00%    MPKI:0.00
PC:10b16     Total:8      MisBP:0   MisRate:0.00%    MPKI:0.00
PC:13790     Total:856342      MisBP:0   MisRate:0.00%    MPKI:0.00
PC:2d5c4     Total:30      MisBP:0   MisRate:0.00%    MPKI:0.00
PC:2d76e     Total:8      MisBP:0   MisRate:0.00%    MPKI:0.00
PC:10b14     Total:8      MisBP:0   MisRate:0.00%    MPKI:0.00
PC:1378e     Total:856343      MisBP:0   MisRate:0.00%    MPKI:0.00
PC:2d76a     Total:8      MisBP:0   MisRate:0.00%    MPKI:0.00
PC:13998     Total:39733      MisBP:0   MisRate:0.00%    MPKI:0.00
PC:1378a     Total:856464      MisBP:0   MisRate:0.00%    MPKI:0.00
PC:1398a     Total:39700      MisBP:0   MisRate:0.00%    MPKI:0.00
PC:2d768     Total:8      MisBP:0   MisRate:0.00%    MPKI:0.00
PC:13788     Total:856513      MisBP:0   MisRate:0.00%    MPKI:0.00
PC:2d5bc     Total:34      MisBP:0   MisRate:0.00%    MPKI:0.00
PC:13986     Total:39716      MisBP:0   MisRate:0.00%    MPKI:0.00
PC:2d764     Total:1      MisBP:0   MisRate:0.00%    MPKI:0.00
PC:13784     Total:856540      MisBP:0   MisRate:0.00%    MPKI:0.00
PC:2d5b8     Total:34      MisBP:0   MisRate:0.00%    MPKI:0.00
PC:13984     Total:39721      MisBP:0   MisRate:0.00%    MPKI:0.00
PC:13782     Total:856540      MisBP:0   MisRate:0.00%    MPKI:0.00
PC:13982     Total:39726      MisBP:0   MisRate:0.00%    MPKI:0.00
PC:2d760     Total:2      MisBP:0   MisRate:0.00%    MPKI:0.00
PC:2d39c     Total:18      MisBP:0   MisRate:0.00%    MPKI:0.00
PC:136ac     Total:36552017      MisBP:0   MisRate:0.00%    MPKI:0.00
PC:138ae     Total:3080838      MisBP:0   MisRate:0.00%    MPKI:0.00
PC:10170     Total:3      MisBP:0   MisRate:0.00%    MPKI:0.00
PC:137ac     Total:852328      MisBP:0   MisRate:0.00%    MPKI:0.00
PC:137aa     Total:852333      MisBP:0   MisRate:0.00%    MPKI:0.00
PC:2d5de     Total:1      MisBP:0   MisRate:0.00%    MPKI:0.00
PC:137a8     Total:852850      MisBP:0   MisRate:0.00%    MPKI:0.00
PC:2d5dc     Total:1      MisBP:0   MisRate:0.00%    MPKI:0.00
PC:137a6     Total:853662      MisBP:0   MisRate:0.00%    MPKI:0.00
PC:137a4     Total:853768      MisBP:0   MisRate:0.00%    MPKI:0.00
PC:2d536     Total:38      MisBP:0   MisRate:0.00%    MPKI:0.00
PC:2d5d8     Total:1      MisBP:0   MisRate:0.00%    MPKI:0.00
PC:139a2     Total:53      MisBP:0   MisRate:0.00%    MPKI:0.00
PC:13c66     Total:8      MisBP:0   MisRate:0.00%    MPKI:0.00
PC:13780     Total:856724      MisBP:0   MisRate:0.00%    MPKI:0.00
PC:137a0     Total:854591      MisBP:0   MisRate:0.00%    MPKI:0.00
PC:2d532     Total:38      MisBP:0   MisRate:0.00%    MPKI:0.00
PC:2d5d4     Total:1      MisBP:0   MisRate:0.00%    MPKI:0.00
PC:139a0     Total:53      MisBP:0   MisRate:0.00%    MPKI:0.00
PC:1379e     Total:855116      MisBP:0   MisRate:0.00%    MPKI:0.00
PC:2d530     Total:1      MisBP:0   MisRate:0.00%    MPKI:0.00
PC:2d5d2     Total:1      MisBP:0   MisRate:0.00%    MPKI:0.00
PC:2d398     Total:187      MisBP:0   MisRate:0.00%    MPKI:0.00
PC:1379c     Total:855419      MisBP:0   MisRate:0.00%    MPKI:0.00
PC:2d52e     Total:1      MisBP:0   MisRate:0.00%    MPKI:0.00
PC:2d5d0     Total:30      MisBP:0   MisRate:0.00%    MPKI:0.00
PC:13798     Total:855432      MisBP:0   MisRate:0.00%    MPKI:0.00
PC:2d52a     Total:1      MisBP:0   MisRate:0.00%    MPKI:0.00
PC:2cdf0     Total:1      MisBP:0   MisRate:0.00%    MPKI:0.00
PC:2cc5e     Total:12      MisBP:0   MisRate:0.00%    MPKI:0.00
PC:2d508     Total:23      MisBP:0   MisRate:0.00%    MPKI:0.00
PC:2d8b6     Total:22      MisBP:0   MisRate:0.00%    MPKI:0.00
PC:138d6     Total:23214      MisBP:0   MisRate:0.00%    MPKI:0.00
PC:2cdf2     Total:1      MisBP:0   MisRate:0.00%    MPKI:0.00
PC:10198     Total:1      MisBP:0   MisRate:0.00%    MPKI:0.00
PC:137d8     Total:3776065      MisBP:0   MisRate:0.00%    MPKI:0.00
PC:13974     Total:39839      MisBP:0   MisRate:0.00%    MPKI:0.00
PC:2d752     Total:36      MisBP:0   MisRate:0.00%    MPKI:0.00
PC:13772     Total:864302      MisBP:0   MisRate:0.00%    MPKI:0.00
PC:136d2     Total:3377581      MisBP:0   MisRate:0.00%    MPKI:0.00
PC:2cc5c     Total:12      MisBP:0   MisRate:0.00%    MPKI:0.00
PC:2d506     Total:23      MisBP:0   MisRate:0.00%    MPKI:0.00
PC:138d4     Total:23215      MisBP:0   MisRate:0.00%    MPKI:0.00
PC:136d4     Total:3297971      MisBP:0   MisRate:0.00%    MPKI:0.00
PC:137d6     Total:3776794      MisBP:0   MisRate:0.00%    MPKI:0.00
PC:2d750     Total:36      MisBP:0   MisRate:0.00%    MPKI:0.00
PC:10af6     Total:9      MisBP:0   MisRate:0.00%    MPKI:0.00
PC:13770     Total:864448      MisBP:0   MisRate:0.00%    MPKI:0.00
PC:136d0     Total:3380129      MisBP:0   MisRate:0.00%    MPKI:0.00
PC:2cc5a     Total:12      MisBP:0   MisRate:0.00%    MPKI:0.00
PC:2d504     Total:23      MisBP:0   MisRate:0.00%    MPKI:0.00
PC:2cdee     Total:1      MisBP:0   MisRate:0.00%    MPKI:0.00
PC:10194     Total:2      MisBP:0   MisRate:0.00%    MPKI:0.00
PC:137d4     Total:3779300      MisBP:0   MisRate:0.00%    MPKI:0.00
PC:138ca     Total:3098851      MisBP:0   MisRate:0.00%    MPKI:0.00
PC:2cde6     Total:1      MisBP:0   MisRate:0.00%    MPKI:0.00
PC:1018c     Total:1      MisBP:0   MisRate:0.00%    MPKI:0.00
PC:10afc     Total:9      MisBP:0   MisRate:0.00%    MPKI:0.00
PC:2d5b4     Total:34      MisBP:0   MisRate:0.00%    MPKI:0.00
PC:13970     Total:39839      MisBP:0   MisRate:0.00%    MPKI:0.00
PC:2d74e     Total:36      MisBP:0   MisRate:0.00%    MPKI:0.00
PC:10af4     Total:9      MisBP:0   MisRate:0.00%    MPKI:0.00
PC:1376e     Total:864467      MisBP:0   MisRate:0.00%    MPKI:0.00
PC:2d74a     Total:36      MisBP:0   MisRate:0.00%    MPKI:0.00
PC:1376a     Total:2862071      MisBP:0   MisRate:0.00%    MPKI:0.00
PC:2d59e     Total:14      MisBP:0   MisRate:0.00%    MPKI:0.00
PC:136de     Total:3283831      MisBP:0   MisRate:0.00%    MPKI:0.00
PC:2d512     Total:25      MisBP:0   MisRate:0.00%    MPKI:0.00
PC:2cdfc     Total:1      MisBP:0   MisRate:0.00%    MPKI:0.00
PC:13978     Total:39838      MisBP:0   MisRate:0.00%    MPKI:0.00
PC:2d756     Total:36      MisBP:0   MisRate:0.00%    MPKI:0.00
PC:325cc     Total:24      MisBP:0   MisRate:0.00%    MPKI:0.00
PC:13776     Total:863887      MisBP:0   MisRate:0.00%    MPKI:0.00
PC:136d6     Total:3295246      MisBP:0   MisRate:0.00%    MPKI:0.00
PC:2cc60     Total:12      MisBP:0   MisRate:0.00%    MPKI:0.00
PC:2d50a     Total:23      MisBP:0   MisRate:0.00%    MPKI:0.00
PC:2d8b8     Total:22      MisBP:0   MisRate:0.00%    MPKI:0.00
PC:138d8     Total:23211      MisBP:0   MisRate:0.00%    MPKI:0.00
PC:137da     Total:3775516      MisBP:0   MisRate:0.00%    MPKI:0.00
PC:13774     Total:864001      MisBP:0   MisRate:0.00%    MPKI:0.00
PC:2efa6     Total:22      MisBP:0   MisRate:0.00%    MPKI:0.00
PC:2cad2     Total:1      MisBP:0   MisRate:0.00%    MPKI:0.00
PC:14820     Total:25      MisBP:0   MisRate:0.00%    MPKI:0.00
PC:326e4     Total:3      MisBP:0   MisRate:0.00%    MPKI:0.00
PC:2d5a8     Total:14      MisBP:0   MisRate:0.00%    MPKI:0.00
PC:2ef30     Total:52      MisBP:0   MisRate:0.00%    MPKI:0.00
PC:2ef40     Total:30      MisBP:0   MisRate:0.00%    MPKI:0.00
PC:2ca68     Total:6      MisBP:0   MisRate:0.00%    MPKI:0.00
PC:2ef3c     Total:43      MisBP:0   MisRate:0.00%    MPKI:0.00
PC:2ca66     Total:6      MisBP:0   MisRate:0.00%    MPKI:0.00
PC:2dcd0     Total:21      MisBP:0   MisRate:0.00%    MPKI:0.00
PC:2ef3a     Total:43      MisBP:0   MisRate:0.00%    MPKI:0.00
PC:32678     Total:22      MisBP:0   MisRate:0.00%    MPKI:0.00
PC:2ca64     Total:6      MisBP:0   MisRate:0.00%    MPKI:0.00
PC:2ef38     Total:48      MisBP:0   MisRate:0.00%    MPKI:0.00
PC:2ca60     Total:6      MisBP:0   MisRate:0.00%    MPKI:0.00
PC:2dcca     Total:21      MisBP:0   MisRate:0.00%    MPKI:0.00
PC:2ef34     Total:52      MisBP:0   MisRate:0.00%    MPKI:0.00
PC:2ca5c     Total:6      MisBP:0   MisRate:0.00%    MPKI:0.00
PC:2dcc6     Total:19      MisBP:0   MisRate:0.00%    MPKI:0.00
PC:2dcd6     Total:18      MisBP:0   MisRate:0.00%    MPKI:0.00
PC:2ca5a     Total:6      MisBP:0   MisRate:0.00%    MPKI:0.00
PC:2dcc4     Total:19      MisBP:0   MisRate:0.00%    MPKI:0.00
PC:2ef2e     Total:52      MisBP:0   MisRate:0.00%    MPKI:0.00
PC:3266c     Total:22      MisBP:0   MisRate:0.00%    MPKI:0.00
PC:2ca58     Total:6      MisBP:0   MisRate:0.00%    MPKI:0.00
PC:2ef2c     Total:52      MisBP:0   MisRate:0.00%    MPKI:0.00
PC:2ca54     Total:6      MisBP:0   MisRate:0.00%    MPKI:0.00
PC:2ef28     Total:52      MisBP:0   MisRate:0.00%    MPKI:0.00
PC:2ca52     Total:6      MisBP:0   MisRate:0.00%    MPKI:0.00
PC:2dcbc     Total:22      MisBP:0   MisRate:0.00%    MPKI:0.00
PC:2ef26     Total:60      MisBP:0   MisRate:0.00%    MPKI:0.00
PC:32664     Total:22      MisBP:0   MisRate:0.00%    MPKI:0.00
PC:2ca50     Total:6      MisBP:0   MisRate:0.00%    MPKI:0.00
PC:2dce4     Total:1      MisBP:0   MisRate:0.00%    MPKI:0.00
PC:2cdba     Total:1      MisBP:0   MisRate:0.00%    MPKI:0.00
PC:1389e     Total:23437      MisBP:0   MisRate:0.00%    MPKI:0.00
PC:10160     Total:3      MisBP:0   MisRate:0.00%    MPKI:0.00
PC:2cdb8     Total:12      MisBP:0   MisRate:0.00%    MPKI:0.00
PC:1389c     Total:23437      MisBP:0   MisRate:0.00%    MPKI:0.00
PC:2cdb4     Total:12      MisBP:0   MisRate:0.00%    MPKI:0.00
PC:2cdb0     Total:12      MisBP:0   MisRate:0.00%    MPKI:0.00
PC:13894     Total:39862      MisBP:0   MisRate:0.00%    MPKI:0.00
PC:2cdac     Total:12      MisBP:0   MisRate:0.00%    MPKI:0.00
PC:13890     Total:39889      MisBP:0   MisRate:0.00%    MPKI:0.00
PC:2ca7c     Total:23      MisBP:0   MisRate:0.00%    MPKI:0.00
PC:2dce6     Total:1      MisBP:0   MisRate:0.00%    MPKI:0.00
PC:2ef50     Total:27      MisBP:0   MisRate:0.00%    MPKI:0.00
PC:2ca7a     Total:23      MisBP:0   MisRate:0.00%    MPKI:0.00
PC:2dcba     Total:23      MisBP:0   MisRate:0.00%    MPKI:0.00
PC:3268c     Total:22      MisBP:0   MisRate:0.00%    MPKI:0.00
PC:2ca78     Total:23      MisBP:0   MisRate:0.00%    MPKI:0.00
PC:2dce2     Total:1      MisBP:0   MisRate:0.00%    MPKI:0.00
PC:2ef4c     Total:27      MisBP:0   MisRate:0.00%    MPKI:0.00
PC:2ca74     Total:23      MisBP:0   MisRate:0.00%    MPKI:0.00
PC:2dcde     Total:1      MisBP:0   MisRate:0.00%    MPKI:0.00
PC:2ef48     Total:30      MisBP:0   MisRate:0.00%    MPKI:0.00
PC:2ca72     Total:23      MisBP:0   MisRate:0.00%    MPKI:0.00
PC:2dcdc     Total:18      MisBP:0   MisRate:0.00%    MPKI:0.00
PC:32684     Total:22      MisBP:0   MisRate:0.00%    MPKI:0.00
PC:2ca70     Total:9      MisBP:0   MisRate:0.00%    MPKI:0.00
PC:2dcda     Total:18      MisBP:0   MisRate:0.00%    MPKI:0.00
PC:2ef44     Total:30      MisBP:0   MisRate:0.00%    MPKI:0.00
PC:13a70     Total:3457      MisBP:0   MisRate:0.00%    MPKI:0.00
PC:2cc54     Total:12      MisBP:0   MisRate:0.00%    MPKI:0.00
PC:2cc50     Total:12      MisBP:0   MisRate:0.00%    MPKI:0.00
PC:2cc4c     Total:12      MisBP:0   MisRate:0.00%    MPKI:0.00
PC:2c9b4     Total:2      MisBP:0   MisRate:0.00%    MPKI:0.00
PC:2c9a6     Total:2      MisBP:0   MisRate:0.00%    MPKI:0.00
PC:325b8     Total:24      MisBP:0   MisRate:0.00%    MPKI:0.00
PC:2c99c     Total:2      MisBP:0   MisRate:0.00%    MPKI:0.00
PC:2c990     Total:12      MisBP:0   MisRate:0.00%    MPKI:0.00
PC:2c8a2     Total:12      MisBP:0   MisRate:0.00%    MPKI:0.00
PC:324b4     Total:2      MisBP:0   MisRate:0.00%    MPKI:0.00
PC:2c89e     Total:12      MisBP:0   MisRate:0.00%    MPKI:0.00
PC:2f49e     Total:17      MisBP:0   MisRate:0.00%    MPKI:0.00
PC:13aae     Total:3059      MisBP:0   MisRate:0.00%    MPKI:0.00
PC:2f460     Total:3      MisBP:0   MisRate:0.00%    MPKI:0.00
PC:325e4     Total:24      MisBP:0   MisRate:0.00%    MPKI:0.00
PC:2f458     Total:3      MisBP:0   MisRate:0.00%    MPKI:0.00
PC:13a68     Total:3621      MisBP:0   MisRate:0.00%    MPKI:0.00
PC:2f44c     Total:3      MisBP:0   MisRate:0.00%    MPKI:0.00
PC:13a5c     Total:3629      MisBP:0   MisRate:0.00%    MPKI:0.00
PC:2f448     Total:17      MisBP:0   MisRate:0.00%    MPKI:0.00
PC:13a58     Total:3631      MisBP:0   MisRate:0.00%    MPKI:0.00
PC:2f444     Total:17      MisBP:0   MisRate:0.00%    MPKI:0.00
PC:13a54     Total:3753      MisBP:0   MisRate:0.00%    MPKI:0.00
PC:2f438     Total:18      MisBP:0   MisRate:0.00%    MPKI:0.00
PC:2cf64     Total:1      MisBP:0   MisRate:0.00%    MPKI:0.00
PC:2f430     Total:36      MisBP:0   MisRate:0.00%    MPKI:0.00
PC:2cf5c     Total:1      MisBP:0   MisRate:0.00%    MPKI:0.00
PC:13a40     Total:3762      MisBP:0   MisRate:0.00%    MPKI:0.00
PC:2ca12     Total:1      MisBP:0   MisRate:0.00%    MPKI:0.00
PC:2ca4c     Total:6      MisBP:0   MisRate:0.00%    MPKI:0.00
PC:2dcb6     Total:23      MisBP:0   MisRate:0.00%    MPKI:0.00
PC:2ef20     Total:300      MisBP:0   MisRate:0.00%    MPKI:0.00
PC:2ca48     Total:6      MisBP:0   MisRate:0.00%    MPKI:0.00
PC:2ef1c     Total:60      MisBP:0   MisRate:0.00%    MPKI:0.00
PC:2ca42     Total:12      MisBP:0   MisRate:0.00%    MPKI:0.00
PC:32654     Total:22      MisBP:0   MisRate:0.00%    MPKI:0.00
PC:2ca40     Total:12      MisBP:0   MisRate:0.00%    MPKI:0.00
PC:2ca3c     Total:13      MisBP:0   MisRate:0.00%    MPKI:0.00
PC:2ca34     Total:13      MisBP:0   MisRate:0.00%    MPKI:0.00
PC:2ca28     Total:1      MisBP:0   MisRate:0.00%    MPKI:0.00
PC:2ca20     Total:1      MisBP:0   MisRate:0.00%    MPKI:0.00
PC:2ca16     Total:1      MisBP:0   MisRate:0.00%    MPKI:0.00
PC:32628     Total:23      MisBP:0   MisRate:0.00%    MPKI:0.00
PC:10164     Total:3      MisBP:0   MisRate:0.00%    MPKI:0.00
PC:32624     Total:23      MisBP:0   MisRate:0.00%    MPKI:0.00
PC:2ca04     Total:1      MisBP:0   MisRate:0.00%    MPKI:0.00
PC:2ca00     Total:1      MisBP:0   MisRate:0.00%    MPKI:0.00
PC:11018     Total:11      MisBP:0   MisRate:0.00%    MPKI:0.00
PC:2ca08     Total:1      MisBP:0   MisRate:0.00%    MPKI:0.00
PC:2c9f6     Total:2      MisBP:0   MisRate:0.00%    MPKI:0.00
PC:11006     Total:11      MisBP:0   MisRate:0.00%    MPKI:0.00
PC:32608     Total:23      MisBP:0   MisRate:0.00%    MPKI:0.00
PC:2c9de     Total:14      MisBP:0   MisRate:0.00%    MPKI:0.00
PC:10fee     Total:9      MisBP:0   MisRate:0.00%    MPKI:0.00
PC:325f0     Total:24      MisBP:0   MisRate:0.00%    MPKI:0.00
PC:2c9d2     Total:14      MisBP:0   MisRate:0.00%    MPKI:0.00
PC:10fe2     Total:9      MisBP:0   MisRate:0.00%    MPKI:0.00
PC:326cc     Total:3      MisBP:0   MisRate:0.00%    MPKI:0.00
PC:2cd50     Total:25      MisBP:0   MisRate:0.00%    MPKI:0.00
PC:2cd4e     Total:25      MisBP:0   MisRate:0.00%    MPKI:0.00
PC:13832     Total:789224      MisBP:0   MisRate:0.00%    MPKI:0.00
PC:2cd4a     Total:25      MisBP:0   MisRate:0.00%    MPKI:0.00
PC:2cd46     Total:25      MisBP:0   MisRate:0.00%    MPKI:0.00
PC:1382a     Total:3030000      MisBP:0   MisRate:0.00%    MPKI:0.00
PC:2cd42     Total:25      MisBP:0   MisRate:0.00%    MPKI:0.00
PC:2cd36     Total:21      MisBP:0   MisRate:0.00%    MPKI:0.00
PC:1381a     Total:2461694      MisBP:0   MisRate:0.00%    MPKI:0.00
PC:2cabc     Total:2      MisBP:0   MisRate:0.00%    MPKI:0.00
PC:2ef90     Total:23      MisBP:0   MisRate:0.00%    MPKI:0.00
PC:1480a     Total:25      MisBP:0   MisRate:0.00%    MPKI:0.00
PC:2caba     Total:2      MisBP:0   MisRate:0.00%    MPKI:0.00
PC:2ef8e     Total:23      MisBP:0   MisRate:0.00%    MPKI:0.00
PC:13836     Total:788032      MisBP:0   MisRate:0.00%    MPKI:0.00
PC:2cab8     Total:2      MisBP:0   MisRate:0.00%    MPKI:0.00
PC:2ef8c     Total:23      MisBP:0   MisRate:0.00%    MPKI:0.00
PC:14806     Total:25      MisBP:0   MisRate:0.00%    MPKI:0.00
PC:2cab6     Total:2      MisBP:0   MisRate:0.00%    MPKI:0.00
PC:2ef8a     Total:24      MisBP:0   MisRate:0.00%    MPKI:0.00
PC:326c8     Total:3      MisBP:0   MisRate:0.00%    MPKI:0.00
PC:2cab2     Total:2      MisBP:0   MisRate:0.00%    MPKI:0.00
PC:326c4     Total:3      MisBP:0   MisRate:0.00%    MPKI:0.00
PC:2caae     Total:2      MisBP:0   MisRate:0.00%    MPKI:0.00
PC:2ef82     Total:26      MisBP:0   MisRate:0.00%    MPKI:0.00
PC:147fc     Total:27      MisBP:0   MisRate:0.00%    MPKI:0.00
PC:326c0     Total:3      MisBP:0   MisRate:0.00%    MPKI:0.00
PC:2caaa     Total:2      MisBP:0   MisRate:0.00%    MPKI:0.00
PC:1384e     Total:732649      MisBP:0   MisRate:0.00%    MPKI:0.00
PC:2c8ca     Total:1      MisBP:0   MisRate:0.00%    MPKI:0.00
PC:10eda     Total:10      MisBP:0   MisRate:0.00%    MPKI:0.00
PC:2c988     Total:147      MisBP:0   MisRate:0.00%    MPKI:0.00
PC:2cd7e     Total:1      MisBP:0   MisRate:0.00%    MPKI:0.00
PC:13862     Total:1644      MisBP:0   MisRate:0.00%    MPKI:0.00
PC:2cd7a     Total:1      MisBP:0   MisRate:0.00%    MPKI:0.00
PC:1385e     Total:1645      MisBP:0   MisRate:0.00%    MPKI:0.00
PC:2cd76     Total:1      MisBP:0   MisRate:0.00%    MPKI:0.00
PC:1385a     Total:1647      MisBP:0   MisRate:0.00%    MPKI:0.00
PC:2cd72     Total:1      MisBP:0   MisRate:0.00%    MPKI:0.00
PC:13856     Total:1647      MisBP:0   MisRate:0.00%    MPKI:0.00
PC:2cd70     Total:1      MisBP:0   MisRate:0.00%    MPKI:0.00
PC:2cd6c     Total:1      MisBP:0   MisRate:0.00%    MPKI:0.00
PC:2cd6a     Total:1      MisBP:0   MisRate:0.00%    MPKI:0.00
PC:2ef7e     Total:28      MisBP:0   MisRate:0.00%    MPKI:0.00
PC:2cd68     Total:1      MisBP:0   MisRate:0.00%    MPKI:0.00
PC:2cd64     Total:1      MisBP:0   MisRate:0.00%    MPKI:0.00
PC:13848     Total:733092      MisBP:0   MisRate:0.00%    MPKI:0.00
PC:2cd60     Total:1      MisBP:0   MisRate:0.00%    MPKI:0.00
PC:13844     Total:733110      MisBP:0   MisRate:0.00%    MPKI:0.00
PC:2cd5e     Total:1      MisBP:0   MisRate:0.00%    MPKI:0.00
PC:2cd5c     Total:1      MisBP:0   MisRate:0.00%    MPKI:0.00
PC:13840     Total:733306      MisBP:0   MisRate:0.00%    MPKI:0.00
PC:2cd5a     Total:1      MisBP:0   MisRate:0.00%    MPKI:0.00
PC:2cd58     Total:1      MisBP:0   MisRate:0.00%    MPKI:0.00
PC:1383c     Total:771378      MisBP:0   MisRate:0.00%    MPKI:0.00
PC:13838     Total:771514      MisBP:0   MisRate:0.00%    MPKI:0.00
PC:2cd52     Total:25      MisBP:0   MisRate:0.00%    MPKI:0.00
PC:2ca88     Total:21      MisBP:0   MisRate:0.00%    MPKI:0.00
PC:2ca90     Total:21      MisBP:0   MisRate:0.00%    MPKI:0.00
PC:2dcfa     Total:1      MisBP:0   MisRate:0.00%    MPKI:0.00
PC:2ef64     Total:25      MisBP:0   MisRate:0.00%    MPKI:0.00
PC:2ca8e     Total:21      MisBP:0   MisRate:0.00%    MPKI:0.00
PC:2ef62     Total:25      MisBP:0   MisRate:0.00%    MPKI:0.00
PC:147dc     Total:225      MisBP:0   MisRate:0.00%    MPKI:0.00
PC:326a0     Total:4      MisBP:0   MisRate:0.00%    MPKI:0.00
PC:2ca8c     Total:21      MisBP:0   MisRate:0.00%    MPKI:0.00
PC:2dcf6     Total:1      MisBP:0   MisRate:0.00%    MPKI:0.00
PC:2ef60     Total:25      MisBP:0   MisRate:0.00%    MPKI:0.00
PC:2ca8a     Total:21      MisBP:0   MisRate:0.00%    MPKI:0.00
PC:2dcf4     Total:1      MisBP:0   MisRate:0.00%    MPKI:0.00
PC:2ef5e     Total:25      MisBP:0   MisRate:0.00%    MPKI:0.00
PC:3269c     Total:4      MisBP:0   MisRate:0.00%    MPKI:0.00
PC:326a4     Total:4      MisBP:0   MisRate:0.00%    MPKI:0.00
PC:2dcf2     Total:1      MisBP:0   MisRate:0.00%    MPKI:0.00
PC:2ef5c     Total:25      MisBP:0   MisRate:0.00%    MPKI:0.00
PC:2ca86     Total:21      MisBP:0   MisRate:0.00%    MPKI:0.00
PC:2ef5a     Total:25      MisBP:0   MisRate:0.00%    MPKI:0.00
PC:32698     Total:4      MisBP:0   MisRate:0.00%    MPKI:0.00
PC:2ca84     Total:21      MisBP:0   MisRate:0.00%    MPKI:0.00
PC:2dcee     Total:1      MisBP:0   MisRate:0.00%    MPKI:0.00
PC:2ef58     Total:25      MisBP:0   MisRate:0.00%    MPKI:0.00
PC:2ca80     Total:21      MisBP:0   MisRate:0.00%    MPKI:0.00
PC:2dcea     Total:1      MisBP:0   MisRate:0.00%    MPKI:0.00
PC:2ef54     Total:25      MisBP:0   MisRate:0.00%    MPKI:0.00
PC:2cdbe     Total:1      MisBP:0   MisRate:0.00%    MPKI:0.00
PC:138a2     Total:23437      MisBP:0   MisRate:0.00%    MPKI:0.00
PC:147ea     Total:25      MisBP:0   MisRate:0.00%    MPKI:0.00
PC:147f8     Total:27      MisBP:0   MisRate:0.00%    MPKI:0.00
PC:326bc     Total:4      MisBP:0   MisRate:0.00%    MPKI:0.00
PC:2caa8     Total:2      MisBP:0   MisRate:0.00%    MPKI:0.00
PC:2ef7c     Total:28      MisBP:0   MisRate:0.00%    MPKI:0.00
PC:147f6     Total:27      MisBP:0   MisRate:0.00%    MPKI:0.00
PC:2caa6     Total:2      MisBP:0   MisRate:0.00%    MPKI:0.00
PC:326b8     Total:4      MisBP:0   MisRate:0.00%    MPKI:0.00
PC:147f0     Total:27      MisBP:0   MisRate:0.00%    MPKI:0.00
PC:326b4     Total:4      MisBP:0   MisRate:0.00%    MPKI:0.00
PC:2ca9e     Total:21      MisBP:0   MisRate:0.00%    MPKI:0.00
PC:326b0     Total:4      MisBP:0   MisRate:0.00%    MPKI:0.00
PC:2ca9c     Total:21      MisBP:0   MisRate:0.00%    MPKI:0.00
PC:2ef70     Total:28      MisBP:0   MisRate:0.00%    MPKI:0.00
PC:13bae     Total:63      MisBP:0   MisRate:0.00%    MPKI:0.00
PC:2ca9a     Total:21      MisBP:0   MisRate:0.00%    MPKI:0.00
PC:2ef6e     Total:28      MisBP:0   MisRate:0.00%    MPKI:0.00
PC:147e8     Total:25      MisBP:0   MisRate:0.00%    MPKI:0.00
PC:326ac     Total:4      MisBP:0   MisRate:0.00%    MPKI:0.00
PC:2ca98     Total:21      MisBP:0   MisRate:0.00%    MPKI:0.00
PC:2ef6c     Total:28      MisBP:0   MisRate:0.00%    MPKI:0.00
PC:2ca96     Total:21      MisBP:0   MisRate:0.00%    MPKI:0.00
PC:2ef6a     Total:28      MisBP:0   MisRate:0.00%    MPKI:0.00
PC:147e4     Total:25      MisBP:0   MisRate:0.00%    MPKI:0.00
PC:326a8     Total:4      MisBP:0   MisRate:0.00%    MPKI:0.00
PC:2ca92     Total:21      MisBP:0   MisRate:0.00%    MPKI:0.00
PC:2ef66     Total:24      MisBP:0   MisRate:0.00%    MPKI:0.00
PC:147e0     Total:25      MisBP:0   MisRate:0.00%    MPKI:0.00
PC:32630     Total:23      MisBP:0   MisRate:0.00%    MPKI:0.00
PC:2d720     Total:10      MisBP:0   MisRate:0.00%    MPKI:0.00
PC:2d71c     Total:17      MisBP:0   MisRate:0.00%    MPKI:0.00
PC:2d71a     Total:17      MisBP:0   MisRate:0.00%    MPKI:0.00
PC:2d718     Total:17      MisBP:0   MisRate:0.00%    MPKI:0.00
PC:2d714     Total:17      MisBP:0   MisRate:0.00%    MPKI:0.00
PC:2d712     Total:17      MisBP:0   MisRate:0.00%    MPKI:0.00
PC:2d710     Total:16      MisBP:0   MisRate:0.00%    MPKI:0.00
PC:2d70c     Total:16      MisBP:0   MisRate:0.00%    MPKI:0.00
PC:2ca22     Total:1      MisBP:0   MisRate:0.00%    MPKI:0.00
PC:11032     Total:3      MisBP:0   MisRate:0.00%    MPKI:0.00
PC:32634     Total:23      MisBP:0   MisRate:0.00%    MPKI:0.00
PC:13b96     Total:2268      MisBP:0   MisRate:0.00%    MPKI:0.00
PC:2ca1e     Total:1      MisBP:0   MisRate:0.00%    MPKI:0.00
PC:1102e     Total:3      MisBP:0   MisRate:0.00%    MPKI:0.00
PC:2d722     Total:10      MisBP:0   MisRate:0.00%    MPKI:0.00
PC:13b92     Total:2268      MisBP:0   MisRate:0.00%    MPKI:0.00
PC:2ca1c     Total:1      MisBP:0   MisRate:0.00%    MPKI:0.00
PC:1102c     Total:11      MisBP:0   MisRate:0.00%    MPKI:0.00
PC:13b90     Total:2268      MisBP:0   MisRate:0.00%    MPKI:0.00
PC:2ca18     Total:1      MisBP:0   MisRate:0.00%    MPKI:0.00
PC:11028     Total:11      MisBP:0   MisRate:0.00%    MPKI:0.00
PC:13b8c     Total:2268      MisBP:0   MisRate:0.00%    MPKI:0.00
PC:2ca14     Total:1      MisBP:0   MisRate:0.00%    MPKI:0.00
PC:11024     Total:11      MisBP:0   MisRate:0.00%    MPKI:0.00
PC:13b88     Total:2268      MisBP:0   MisRate:0.00%    MPKI:0.00
PC:2ca10     Total:1      MisBP:0   MisRate:0.00%    MPKI:0.00
PC:11020     Total:11      MisBP:0   MisRate:0.00%    MPKI:0.00
PC:13b84     Total:2268      MisBP:0   MisRate:0.00%    MPKI:0.00
PC:2d748     Total:36      MisBP:0   MisRate:0.00%    MPKI:0.00
PC:2d7e4     Total:1      MisBP:0   MisRate:0.00%    MPKI:0.00
PC:2d7d6     Total:16      MisBP:0   MisRate:0.00%    MPKI:0.00
PC:2d7cc     Total:30      MisBP:0   MisRate:0.00%    MPKI:0.00
PC:2d7c8     Total:46      MisBP:0   MisRate:0.00%    MPKI:0.00
PC:2d77a     Total:7      MisBP:0   MisRate:0.00%    MPKI:0.00
PC:10b20     Total:9      MisBP:0   MisRate:0.00%    MPKI:0.00
PC:2d774     Total:8      MisBP:0   MisRate:0.00%    MPKI:0.00
PC:10b1a     Total:9      MisBP:0   MisRate:0.00%    MPKI:0.00
PC:2d76c     Total:8      MisBP:0   MisRate:0.00%    MPKI:0.00
PC:10b12     Total:8      MisBP:0   MisRate:0.00%    MPKI:0.00
PC:2d766     Total:1      MisBP:0   MisRate:0.00%    MPKI:0.00
PC:10b0c     Total:8      MisBP:0   MisRate:0.00%    MPKI:0.00
PC:2d75e     Total:7      MisBP:0   MisRate:0.00%    MPKI:0.00
PC:10b04     Total:9      MisBP:0   MisRate:0.00%    MPKI:0.00
PC:2ca0e     Total:1      MisBP:0   MisRate:0.00%    MPKI:0.00
PC:10aee     Total:9      MisBP:0   MisRate:0.00%    MPKI:0.00
PC:2d744     Total:22      MisBP:0   MisRate:0.00%    MPKI:0.00
PC:10aea     Total:9      MisBP:0   MisRate:0.00%    MPKI:0.00
PC:2d740     Total:22      MisBP:0   MisRate:0.00%    MPKI:0.00
PC:10ae6     Total:9      MisBP:0   MisRate:0.00%    MPKI:0.00
PC:2d738     Total:22      MisBP:0   MisRate:0.00%    MPKI:0.00
PC:10ade     Total:1389      MisBP:0   MisRate:0.00%    MPKI:0.00
PC:2d732     Total:22      MisBP:0   MisRate:0.00%    MPKI:0.00
PC:10ad8     Total:1390      MisBP:0   MisRate:0.00%    MPKI:0.00
PC:2d72e     Total:22      MisBP:0   MisRate:0.00%    MPKI:0.00
PC:2d72c     Total:22      MisBP:0   MisRate:0.00%    MPKI:0.00
PC:2d72a     Total:22      MisBP:0   MisRate:0.00%    MPKI:0.00
PC:2d728     Total:22      MisBP:0   MisRate:0.00%    MPKI:0.00
PC:325dc     Total:24      MisBP:0   MisRate:0.00%    MPKI:0.00
PC:2c9ec     Total:2      MisBP:0   MisRate:0.00%    MPKI:0.00
PC:13b4e     Total:4617      MisBP:0   MisRate:0.00%    MPKI:0.00
PC:2c9d8     Total:14      MisBP:0   MisRate:0.00%    MPKI:0.00
PC:13b4c     Total:4617      MisBP:0   MisRate:0.00%    MPKI:0.00
PC:2c9d6     Total:14      MisBP:0   MisRate:0.00%    MPKI:0.00
PC:10fe6     Total:9      MisBP:0   MisRate:0.00%    MPKI:0.00
PC:325e8     Total:24      MisBP:0   MisRate:0.00%    MPKI:0.00
PC:13b4a     Total:4617      MisBP:0   MisRate:0.00%    MPKI:0.00
PC:13b48     Total:4617      MisBP:0   MisRate:0.00%    MPKI:0.00
PC:13b44     Total:4617      MisBP:0   MisRate:0.00%    MPKI:0.00
PC:2c9ce     Total:14      MisBP:0   MisRate:0.00%    MPKI:0.00
PC:325e0     Total:24      MisBP:0   MisRate:0.00%    MPKI:0.00
PC:13b42     Total:4617      MisBP:0   MisRate:0.00%    MPKI:0.00
PC:2c9ca     Total:14      MisBP:0   MisRate:0.00%    MPKI:0.00
PC:10ffc     Total:6      MisBP:0   MisRate:0.00%    MPKI:0.00
PC:13b3e     Total:4858      MisBP:0   MisRate:0.00%    MPKI:0.00
PC:2c9c8     Total:14      MisBP:0   MisRate:0.00%    MPKI:0.00
PC:13b3c     Total:4858      MisBP:0   MisRate:0.00%    MPKI:0.00
PC:13b3a     Total:4820      MisBP:0   MisRate:0.00%    MPKI:0.00
PC:2c9c4     Total:14      MisBP:0   MisRate:0.00%    MPKI:0.00
PC:13b38     Total:4842      MisBP:0   MisRate:0.00%    MPKI:0.00
PC:2c9c2     Total:14      MisBP:0   MisRate:0.00%    MPKI:0.00
PC:325d4     Total:24      MisBP:0   MisRate:0.00%    MPKI:0.00
PC:13b36     Total:4842      MisBP:0   MisRate:0.00%    MPKI:0.00
PC:13b34     Total:4905      MisBP:0   MisRate:0.00%    MPKI:0.00
PC:2c9be     Total:14      MisBP:0   MisRate:0.00%    MPKI:0.00
PC:325d0     Total:24      MisBP:0   MisRate:0.00%    MPKI:0.00
PC:13b32     Total:4905      MisBP:0   MisRate:0.00%    MPKI:0.00
PC:10ff4     Total:9      MisBP:0   MisRate:0.00%    MPKI:0.00
PC:32620     Total:23      MisBP:0   MisRate:0.00%    MPKI:0.00
PC:13b82     Total:10      MisBP:0   MisRate:0.00%    MPKI:0.00
PC:13b80     Total:10      MisBP:0   MisRate:0.00%    MPKI:0.00
PC:2c9ea     Total:2      MisBP:0   MisRate:0.00%    MPKI:0.00
PC:10ffa     Total:6      MisBP:0   MisRate:0.00%    MPKI:0.00
PC:325fc     Total:24      MisBP:0   MisRate:0.00%    MPKI:0.00
PC:13b5e     Total:4452      MisBP:0   MisRate:0.00%    MPKI:0.00
PC:1100a     Total:11      MisBP:0   MisRate:0.00%    MPKI:0.00
PC:3260c     Total:23      MisBP:0   MisRate:0.00%    MPKI:0.00
PC:10ff8     Total:6      MisBP:0   MisRate:0.00%    MPKI:0.00
PC:13b5c     Total:4452      MisBP:0   MisRate:0.00%    MPKI:0.00
PC:2c9e6     Total:14      MisBP:0   MisRate:0.00%    MPKI:0.00
PC:325f8     Total:24      MisBP:0   MisRate:0.00%    MPKI:0.00
PC:2c9e4     Total:14      MisBP:0   MisRate:0.00%    MPKI:0.00
PC:2d7ec     Total:1      MisBP:0   MisRate:0.00%    MPKI:0.00
PC:13b58     Total:4439      MisBP:0   MisRate:0.00%    MPKI:0.00
PC:11002     Total:11      MisBP:0   MisRate:0.00%    MPKI:0.00
PC:2c9f2     Total:2      MisBP:0   MisRate:0.00%    MPKI:0.00
PC:32604     Total:24      MisBP:0   MisRate:0.00%    MPKI:0.00
PC:2c9e0     Total:14      MisBP:0   MisRate:0.00%    MPKI:0.00
PC:10ff0     Total:9      MisBP:0   MisRate:0.00%    MPKI:0.00
PC:13b54     Total:4439      MisBP:0   MisRate:0.00%    MPKI:0.00
PC:10ffe     Total:5      MisBP:0   MisRate:0.00%    MPKI:0.00
PC:2c9ee     Total:2      MisBP:0   MisRate:0.00%    MPKI:0.00
PC:32600     Total:24      MisBP:0   MisRate:0.00%    MPKI:0.00
PC:2c9dc     Total:14      MisBP:0   MisRate:0.00%    MPKI:0.00
PC:10fec     Total:9      MisBP:0   MisRate:0.00%    MPKI:0.00
PC:13b50     Total:4611      MisBP:0   MisRate:0.00%    MPKI:0.00
PC:2d9b0     Total:14      MisBP:0   MisRate:0.00%    MPKI:0.00
PC:2c87c     Total:15      MisBP:0   MisRate:0.00%    MPKI:0.00
PC:2d9d0     Total:1      MisBP:0   MisRate:0.00%    MPKI:0.00
PC:2d9ce     Total:1      MisBP:0   MisRate:0.00%    MPKI:0.00
PC:2d9cc     Total:1      MisBP:0   MisRate:0.00%    MPKI:0.00
PC:2d9ca     Total:13      MisBP:0   MisRate:0.00%    MPKI:0.00
PC:2d9c6     Total:13      MisBP:0   MisRate:0.00%    MPKI:0.00
PC:2d9c4     Total:13      MisBP:0   MisRate:0.00%    MPKI:0.00
PC:2d9c2     Total:13      MisBP:0   MisRate:0.00%    MPKI:0.00
PC:2d9be     Total:13      MisBP:0   MisRate:0.00%    MPKI:0.00
PC:2d9bc     Total:13      MisBP:0   MisRate:0.00%    MPKI:0.00
PC:2d9b8     Total:14      MisBP:0   MisRate:0.00%    MPKI:0.00
PC:2d9b6     Total:14      MisBP:0   MisRate:0.00%    MPKI:0.00
PC:2d9b4     Total:14      MisBP:0   MisRate:0.00%    MPKI:0.00
PC:2d9b2     Total:14      MisBP:0   MisRate:0.00%    MPKI:0.00
PC:2d9d2     Total:1      MisBP:0   MisRate:0.00%    MPKI:0.00
PC:2d9ae     Total:11      MisBP:0   MisRate:0.00%    MPKI:0.00
PC:2d9ac     Total:11      MisBP:0   MisRate:0.00%    MPKI:0.00
PC:2d9aa     Total:11      MisBP:0   MisRate:0.00%    MPKI:0.00
PC:2d9a4     Total:9      MisBP:0   MisRate:0.00%    MPKI:0.00
PC:2d9a2     Total:9      MisBP:0   MisRate:0.00%    MPKI:0.00
PC:2d9a0     Total:9      MisBP:0   MisRate:0.00%    MPKI:0.00
PC:2d99e     Total:9      MisBP:0   MisRate:0.00%    MPKI:0.00
PC:2d99c     Total:9      MisBP:0   MisRate:0.00%    MPKI:0.00
PC:2d99a     Total:9      MisBP:0   MisRate:0.00%    MPKI:0.00
PC:2d998     Total:9      MisBP:0   MisRate:0.00%    MPKI:0.00
PC:2d994     Total:9      MisBP:0   MisRate:0.00%    MPKI:0.00
PC:2d990     Total:9      MisBP:0   MisRate:0.00%    MPKI:0.00
PC:2d98c     Total:9      MisBP:0   MisRate:0.00%    MPKI:0.00
PC:3263c     Total:23      MisBP:0   MisRate:0.00%    MPKI:0.00
PC:2ca38     Total:13      MisBP:0   MisRate:0.00%    MPKI:0.00
PC:13bac     Total:9      MisBP:0   MisRate:0.00%    MPKI:0.00
PC:2ca36     Total:13      MisBP:0   MisRate:0.00%    MPKI:0.00
PC:32648     Total:22      MisBP:0   MisRate:0.00%    MPKI:0.00
PC:13baa     Total:9      MisBP:0   MisRate:0.00%    MPKI:0.00
PC:2ca32     Total:1      MisBP:0   MisRate:0.00%    MPKI:0.00
PC:32644     Total:22      MisBP:0   MisRate:0.00%    MPKI:0.00
PC:13ba6     Total:12      MisBP:0   MisRate:0.00%    MPKI:0.00
PC:2ca30     Total:1      MisBP:0   MisRate:0.00%    MPKI:0.00
PC:13ba4     Total:12      MisBP:0   MisRate:0.00%    MPKI:0.00
PC:2ca2e     Total:1      MisBP:0   MisRate:0.00%    MPKI:0.00
PC:32640     Total:22      MisBP:0   MisRate:0.00%    MPKI:0.00
PC:2ca2a     Total:1      MisBP:0   MisRate:0.00%    MPKI:0.00
PC:1103a     Total:2      MisBP:0   MisRate:0.00%    MPKI:0.00
PC:2d98a     Total:9      MisBP:0   MisRate:0.00%    MPKI:0.00
PC:13b9e     Total:4530      MisBP:0   MisRate:0.00%    MPKI:0.00
PC:2ca26     Total:1      MisBP:0   MisRate:0.00%    MPKI:0.00
PC:11036     Total:3      MisBP:0   MisRate:0.00%    MPKI:0.00
PC:32638     Total:23      MisBP:0   MisRate:0.00%    MPKI:0.00
PC:13b9a     Total:2267      MisBP:0   MisRate:0.00%    MPKI:0.00
PC:2c886     Total:15      MisBP:0   MisRate:0.00%    MPKI:0.00
PC:32498     Total:3      MisBP:0   MisRate:0.00%    MPKI:0.00
PC:2d9da     Total:9      MisBP:0   MisRate:0.00%    MPKI:0.00
PC:2c882     Total:15      MisBP:0   MisRate:0.00%    MPKI:0.00
PC:2d9d6     Total:1      MisBP:0   MisRate:0.00%    MPKI:0.00
PC:2d9d4     Total:1      MisBP:0   MisRate:0.00%    MPKI:0.00
PC:2c87e     Total:150      MisBP:0   MisRate:0.00%    MPKI:0.00
PC:32490     Total:11      MisBP:0   MisRate:0.00%    MPKI:0.00
PC:2d8e0     Total:22      MisBP:0   MisRate:0.00%    MPKI:0.00
PC:2dcc0     Total:19      MisBP:0   MisRate:0.00%    MPKI:0.00
PC:2ef2a     Total:52      MisBP:0   MisRate:0.00%    MPKI:0.00
PC:32668     Total:22      MisBP:0   MisRate:0.00%    MPKI:0.00
PC:2dcb8     Total:23      MisBP:0   MisRate:0.00%    MPKI:0.00
PC:2ef22     Total:60      MisBP:0   MisRate:0.00%    MPKI:0.00
PC:32660     Total:22      MisBP:0   MisRate:0.00%    MPKI:0.00
PC:2d8fc     Total:15      MisBP:0   MisRate:0.00%    MPKI:0.00
PC:2d8fa     Total:15      MisBP:0   MisRate:0.00%    MPKI:0.00
PC:2d8f4     Total:15      MisBP:0   MisRate:0.00%    MPKI:0.00
PC:2d8f0     Total:1      MisBP:0   MisRate:0.00%    MPKI:0.00
PC:2d8ec     Total:1      MisBP:0   MisRate:0.00%    MPKI:0.00
PC:2d8e6     Total:23      MisBP:0   MisRate:0.00%    MPKI:0.00
PC:2d8e4     Total:23      MisBP:0   MisRate:0.00%    MPKI:0.00
PC:2d8e2     Total:22      MisBP:0   MisRate:0.00%    MPKI:0.00
PC:32670     Total:22      MisBP:0   MisRate:0.00%    MPKI:0.00
PC:2d8de     Total:22      MisBP:0   MisRate:0.00%    MPKI:0.00
PC:2d8da     Total:22      MisBP:0   MisRate:0.00%    MPKI:0.00
PC:2d8d6     Total:22      MisBP:0   MisRate:0.00%    MPKI:0.00
PC:2d8d4     Total:22      MisBP:0   MisRate:0.00%    MPKI:0.00
PC:2d8d2     Total:22      MisBP:0   MisRate:0.00%    MPKI:0.00
PC:2d8ce     Total:22      MisBP:0   MisRate:0.00%    MPKI:0.00
PC:2d8cc     Total:22      MisBP:0   MisRate:0.00%    MPKI:0.00
PC:2d8ca     Total:22      MisBP:0   MisRate:0.00%    MPKI:0.00
PC:2d8c8     Total:22      MisBP:0   MisRate:0.00%    MPKI:0.00
PC:2d8c4     Total:22      MisBP:0   MisRate:0.00%    MPKI:0.00
PC:2d8c2     Total:22      MisBP:0   MisRate:0.00%    MPKI:0.00
PC:2cf42     Total:13      MisBP:0   MisRate:0.00%    MPKI:0.00
PC:13a26     Total:13      MisBP:0   MisRate:0.00%    MPKI:0.00
PC:2d90e     Total:12      MisBP:0   MisRate:0.00%    MPKI:0.00
PC:2d988     Total:9      MisBP:0   MisRate:0.00%    MPKI:0.00
PC:2d986     Total:9      MisBP:0   MisRate:0.00%    MPKI:0.00
PC:2d938     Total:1      MisBP:0   MisRate:0.00%    MPKI:0.00
PC:2d934     Total:1      MisBP:0   MisRate:0.00%    MPKI:0.00
PC:2d930     Total:1      MisBP:0   MisRate:0.00%    MPKI:0.00
PC:2d92c     Total:1      MisBP:0   MisRate:0.00%    MPKI:0.00
PC:2d928     Total:1      MisBP:0   MisRate:0.00%    MPKI:0.00
PC:2d924     Total:1      MisBP:0   MisRate:0.00%    MPKI:0.00
PC:2d920     Total:1      MisBP:0   MisRate:0.00%    MPKI:0.00
PC:2d91c     Total:1      MisBP:0   MisRate:0.00%    MPKI:0.00
PC:2d918     Total:1      MisBP:0   MisRate:0.00%    MPKI:0.00
PC:2d914     Total:1      MisBP:0   MisRate:0.00%    MPKI:0.00
PC:2d910     Total:1      MisBP:0   MisRate:0.00%    MPKI:0.00
PC:136bc     Total:3590223      MisBP:0   MisRate:0.00%    MPKI:0.00
PC:2d90a     Total:12      MisBP:0   MisRate:0.00%    MPKI:0.00
PC:2d906     Total:12      MisBP:0   MisRate:0.00%    MPKI:0.00
PC:2d902     Total:12      MisBP:0   MisRate:0.00%    MPKI:0.00
PC:2d8fe     Total:12      MisBP:0   MisRate:0.00%    MPKI:0.00
PC:2dcfe     Total:1      MisBP:0   MisRate:0.00%    MPKI:0.00
PC:2dcec     Total:1      MisBP:0   MisRate:0.00%    MPKI:0.00
PC:2dce0     Total:1      MisBP:0   MisRate:0.00%    MPKI:0.00
PC:2ef4a     Total:30      MisBP:0   MisRate:0.00%    MPKI:0.00
PC:32688     Total:22      MisBP:0   MisRate:0.00%    MPKI:0.00
PC:2dcd4     Total:21      MisBP:0   MisRate:0.00%    MPKI:0.00
PC:2ef3e     Total:43      MisBP:0   MisRate:0.00%    MPKI:0.00
PC:3267c     Total:22      MisBP:0   MisRate:0.00%    MPKI:0.00
PC:2dcc8     Total:21      MisBP:0   MisRate:0.00%    MPKI:0.00
PC:13bb4     Total:3      MisBP:0   MisRate:0.00%    MPKI:0.00
PC:13956     Total:14      MisBP:0   MisRate:0.00%    MPKI:0.00
PC:2e0dc     Total:1      MisBP:0   MisRate:0.00%    MPKI:0.00
PC:13958     Total:14      MisBP:0   MisRate:0.00%    MPKI:0.00
PC:2e0de     Total:1      MisBP:0   MisRate:0.00%    MPKI:0.00
PC:1395c     Total:14      MisBP:0   MisRate:0.00%    MPKI:0.00
PC:2e0e2     Total:1      MisBP:0   MisRate:0.00%    MPKI:0.00
PC:13960     Total:14      MisBP:0   MisRate:0.00%    MPKI:0.00
PC:13962     Total:14      MisBP:0   MisRate:0.00%    MPKI:0.00
PC:2e0e8     Total:1      MisBP:0   MisRate:0.00%    MPKI:0.00
PC:13966     Total:14      MisBP:0   MisRate:0.00%    MPKI:0.00
PC:1396a     Total:14      MisBP:0   MisRate:0.00%    MPKI:0.00
PC:1396c     Total:14      MisBP:0   MisRate:0.00%    MPKI:0.00
PC:1396e     Total:14      MisBP:0   MisRate:0.00%    MPKI:0.00
PC:13bb2     Total:3      MisBP:0   MisRate:0.00%    MPKI:0.00
PC:2e0d8     Total:1      MisBP:0   MisRate:0.00%    MPKI:0.00
PC:13bb6     Total:3      MisBP:0   MisRate:0.00%    MPKI:0.00
PC:13bb8     Total:3      MisBP:0   MisRate:0.00%    MPKI:0.00
PC:13bbc     Total:4      MisBP:0   MisRate:0.00%    MPKI:0.00
PC:13bbe     Total:4      MisBP:0   MisRate:0.00%    MPKI:0.00
PC:2d5f2     Total:29      MisBP:0   MisRate:0.00%    MPKI:0.00
PC:2d5f6     Total:29      MisBP:0   MisRate:0.00%    MPKI:0.00
PC:2d5f8     Total:29      MisBP:0   MisRate:0.00%    MPKI:0.00
PC:2d5fa     Total:29      MisBP:0   MisRate:0.00%    MPKI:0.00
PC:2d5fc     Total:29      MisBP:0   MisRate:0.00%    MPKI:0.00
PC:2d5fe     Total:29      MisBP:0   MisRate:0.00%    MPKI:0.00
PC:2d600     Total:27      MisBP:0   MisRate:0.00%    MPKI:0.00
PC:2d602     Total:27      MisBP:0   MisRate:0.00%    MPKI:0.00
PC:2d606     Total:27      MisBP:0   MisRate:0.00%    MPKI:0.00
PC:2d608     Total:27      MisBP:0   MisRate:0.00%    MPKI:0.00
PC:1393e     Total:14      MisBP:0   MisRate:0.00%    MPKI:0.00
PC:13922     Total:9      MisBP:0   MisRate:0.00%    MPKI:0.00
PC:2e0a8     Total:10      MisBP:0   MisRate:0.00%    MPKI:0.00
PC:13926     Total:9      MisBP:0   MisRate:0.00%    MPKI:0.00
PC:1392a     Total:9      MisBP:0   MisRate:0.00%    MPKI:0.00
PC:2e0b0     Total:10      MisBP:0   MisRate:0.00%    MPKI:0.00
PC:1392e     Total:9      MisBP:0   MisRate:0.00%    MPKI:0.00
PC:2e0b4     Total:10      MisBP:0   MisRate:0.00%    MPKI:0.00
PC:13930     Total:9      MisBP:0   MisRate:0.00%    MPKI:0.00
PC:2e0b6     Total:10      MisBP:0   MisRate:0.00%    MPKI:0.00
PC:13932     Total:9      MisBP:0   MisRate:0.00%    MPKI:0.00
PC:2e0b8     Total:10      MisBP:0   MisRate:0.00%    MPKI:0.00
PC:13936     Total:9      MisBP:0   MisRate:0.00%    MPKI:0.00
PC:1393a     Total:9      MisBP:0   MisRate:0.00%    MPKI:0.00
PC:2e0c0     Total:10      MisBP:0   MisRate:0.00%    MPKI:0.00
PC:2d60c     Total:5      MisBP:0   MisRate:0.00%    MPKI:0.00
PC:2e0c4     Total:11      MisBP:0   MisRate:0.00%    MPKI:0.00
PC:13940     Total:14      MisBP:0   MisRate:0.00%    MPKI:0.00
PC:2e0c6     Total:11      MisBP:0   MisRate:0.00%    MPKI:0.00
PC:13942     Total:14      MisBP:0   MisRate:0.00%    MPKI:0.00
PC:13944     Total:14      MisBP:0   MisRate:0.00%    MPKI:0.00
PC:2e0ca     Total:11      MisBP:0   MisRate:0.00%    MPKI:0.00
PC:13946     Total:14      MisBP:0   MisRate:0.00%    MPKI:0.00
PC:2e0cc     Total:11      MisBP:0   MisRate:0.00%    MPKI:0.00
PC:1394a     Total:14      MisBP:0   MisRate:0.00%    MPKI:0.00
PC:2e0d0     Total:1      MisBP:0   MisRate:0.00%    MPKI:0.00
PC:1394e     Total:14      MisBP:0   MisRate:0.00%    MPKI:0.00
PC:2e0d4     Total:1      MisBP:0   MisRate:0.00%    MPKI:0.00
PC:13952     Total:14      MisBP:0   MisRate:0.00%    MPKI:0.00
PC:2da02     Total:9      MisBP:0   MisRate:0.00%    MPKI:0.00
PC:2d9ee     Total:4      MisBP:0   MisRate:0.00%    MPKI:0.00
PC:2d9f0     Total:11      MisBP:0   MisRate:0.00%    MPKI:0.00
PC:32398     Total:2      MisBP:0   MisRate:0.00%    MPKI:0.00
PC:2d9f2     Total:11      MisBP:0   MisRate:0.00%    MPKI:0.00
PC:2d9f4     Total:11      MisBP:0   MisRate:0.00%    MPKI:0.00
PC:3239c     Total:2      MisBP:0   MisRate:0.00%    MPKI:0.00
PC:2d9f6     Total:11      MisBP:0   MisRate:0.00%    MPKI:0.00
PC:323a0     Total:2      MisBP:0   MisRate:0.00%    MPKI:0.00
PC:2d9fa     Total:10      MisBP:0   MisRate:0.00%    MPKI:0.00
PC:2d9fc     Total:10      MisBP:0   MisRate:0.00%    MPKI:0.00
PC:323a4     Total:2      MisBP:0   MisRate:0.00%    MPKI:0.00
PC:2d9fe     Total:10      MisBP:0   MisRate:0.00%    MPKI:0.00
PC:2da00     Total:9      MisBP:0   MisRate:0.00%    MPKI:0.00
PC:323a8     Total:2      MisBP:0   MisRate:0.00%    MPKI:0.00
PC:2d9ec     Total:4      MisBP:0   MisRate:0.00%    MPKI:0.00
PC:2da04     Total:9      MisBP:0   MisRate:0.00%    MPKI:0.00
PC:323ac     Total:2      MisBP:0   MisRate:0.00%    MPKI:0.00
PC:2da06     Total:9      MisBP:0   MisRate:0.00%    MPKI:0.00
PC:2da08     Total:14      MisBP:0   MisRate:0.00%    MPKI:0.00
PC:323b0     Total:2      MisBP:0   MisRate:0.00%    MPKI:0.00
PC:2da0a     Total:14      MisBP:0   MisRate:0.00%    MPKI:0.00
PC:2da0e     Total:14      MisBP:0   MisRate:0.00%    MPKI:0.00
PC:2da10     Total:14      MisBP:0   MisRate:0.00%    MPKI:0.00
PC:323b8     Total:2      MisBP:0   MisRate:0.00%    MPKI:0.00
PC:2da12     Total:14      MisBP:0   MisRate:0.00%    MPKI:0.00
PC:2da16     Total:14      MisBP:0   MisRate:0.00%    MPKI:0.00
PC:2da18     Total:14      MisBP:0   MisRate:0.00%    MPKI:0.00
PC:2da1a     Total:14      MisBP:0   MisRate:0.00%    MPKI:0.00
PC:2c3be     Total:1      MisBP:0   MisRate:0.00%    MPKI:0.00
PC:2d60e     Total:5      MisBP:0   MisRate:0.00%    MPKI:0.00
PC:2d610     Total:5      MisBP:0   MisRate:0.00%    MPKI:0.00
PC:2d612     Total:5      MisBP:0   MisRate:0.00%    MPKI:0.00
PC:2d614     Total:4      MisBP:0   MisRate:0.00%    MPKI:0.00
PC:2d616     Total:4      MisBP:0   MisRate:0.00%    MPKI:0.00
PC:2d61a     Total:2      MisBP:0   MisRate:0.00%    MPKI:0.00
PC:2d61c     Total:52      MisBP:0   MisRate:0.00%    MPKI:0.00
PC:2d61e     Total:52      MisBP:0   MisRate:0.00%    MPKI:0.00
PC:2c3b4     Total:1      MisBP:0   MisRate:0.00%    MPKI:0.00
PC:2d620     Total:50      MisBP:0   MisRate:0.00%    MPKI:0.00
PC:2c3b6     Total:5      MisBP:0   MisRate:0.00%    MPKI:0.00
PC:2d622     Total:50      MisBP:0   MisRate:0.00%    MPKI:0.00
PC:2c3b8     Total:1      MisBP:0   MisRate:0.00%    MPKI:0.00
PC:2d626     Total:53      MisBP:0   MisRate:0.00%    MPKI:0.00
PC:2e0a6     Total:10      MisBP:0   MisRate:0.00%    MPKI:0.00
PC:2d62a     Total:11      MisBP:0   MisRate:0.00%    MPKI:0.00
PC:2d62c     Total:11      MisBP:0   MisRate:0.00%    MPKI:0.00
PC:2d62e     Total:11      MisBP:0   MisRate:0.00%    MPKI:0.00
PC:2d630     Total:11      MisBP:0   MisRate:0.00%    MPKI:0.00
PC:2d632     Total:11      MisBP:0   MisRate:0.00%    MPKI:0.00
PC:2d780     Total:4      MisBP:0   MisRate:0.00%    MPKI:0.00
PC:2d794     Total:1      MisBP:0   MisRate:0.00%    MPKI:0.00
PC:2d7a2     Total:1      MisBP:0   MisRate:0.00%    MPKI:0.00
PC:2d9e4     Total:4      MisBP:0   MisRate:0.00%    MPKI:0.00
PC:3238c     Total:1      MisBP:0   MisRate:0.00%    MPKI:0.00
PC:2d9e6     Total:4      MisBP:0   MisRate:0.00%    MPKI:0.00
PC:2d9e8     Total:4      MisBP:0   MisRate:0.00%    MPKI:0.00
PC:32390     Total:1      MisBP:0   MisRate:0.00%    MPKI:0.00
PC:32738     Total:3      MisBP:0   MisRate:0.00%    MPKI:0.00
PC:3271c     Total:3      MisBP:0   MisRate:0.00%    MPKI:0.00
PC:1485c     Total:25      MisBP:0   MisRate:0.00%    MPKI:0.00
PC:32720     Total:3      MisBP:0   MisRate:0.00%    MPKI:0.00
PC:14860     Total:25      MisBP:0   MisRate:0.00%    MPKI:0.00
PC:32724     Total:3      MisBP:0   MisRate:0.00%    MPKI:0.00
PC:14864     Total:25      MisBP:0   MisRate:0.00%    MPKI:0.00
PC:32728     Total:3      MisBP:0   MisRate:0.00%    MPKI:0.00
PC:14868     Total:25      MisBP:0   MisRate:0.00%    MPKI:0.00
PC:3272c     Total:3      MisBP:0   MisRate:0.00%    MPKI:0.00
PC:1486c     Total:25      MisBP:0   MisRate:0.00%    MPKI:0.00
PC:32730     Total:3      MisBP:0   MisRate:0.00%    MPKI:0.00
PC:14870     Total:25      MisBP:0   MisRate:0.00%    MPKI:0.00
PC:32734     Total:3      MisBP:0   MisRate:0.00%    MPKI:0.00
PC:14874     Total:25      MisBP:0   MisRate:0.00%    MPKI:0.00
PC:14858     Total:25      MisBP:0   MisRate:0.00%    MPKI:0.00
PC:14878     Total:25      MisBP:0   MisRate:0.00%    MPKI:0.00
PC:3273c     Total:3      MisBP:0   MisRate:0.00%    MPKI:0.00
PC:1487a     Total:25      MisBP:0   MisRate:0.00%    MPKI:0.00
PC:1487e     Total:24      MisBP:0   MisRate:0.00%    MPKI:0.00
PC:14882     Total:24      MisBP:0   MisRate:0.00%    MPKI:0.00
PC:14886     Total:24      MisBP:0   MisRate:0.00%    MPKI:0.00
PC:14888     Total:156      MisBP:0   MisRate:0.00%    MPKI:0.00
PC:3274c     Total:3      MisBP:0   MisRate:0.00%    MPKI:0.00
PC:1488c     Total:28      MisBP:0   MisRate:0.00%    MPKI:0.00
PC:32750     Total:3      MisBP:0   MisRate:0.00%    MPKI:0.00
PC:14890     Total:28      MisBP:0   MisRate:0.00%    MPKI:0.00
PC:32754     Total:3      MisBP:0   MisRate:0.00%    MPKI:0.00
PC:14894     Total:28      MisBP:0   MisRate:0.00%    MPKI:0.00
PC:32758     Total:3      MisBP:0   MisRate:0.00%    MPKI:0.00
PC:148e2     Total:29      MisBP:0   MisRate:0.00%    MPKI:0.00
PC:10b2e     Total:9      MisBP:0   MisRate:0.00%    MPKI:0.00
PC:2d788     Total:4      MisBP:0   MisRate:0.00%    MPKI:0.00
PC:2d78a     Total:4      MisBP:0   MisRate:0.00%    MPKI:0.00
PC:148cc     Total:135      MisBP:0   MisRate:0.00%    MPKI:0.00
PC:32790     Total:2      MisBP:0   MisRate:0.00%    MPKI:0.00
PC:148ce     Total:27      MisBP:0   MisRate:0.00%    MPKI:0.00
PC:148d0     Total:27      MisBP:0   MisRate:0.00%    MPKI:0.00
PC:32794     Total:2      MisBP:0   MisRate:0.00%    MPKI:0.00
PC:148d2     Total:27      MisBP:0   MisRate:0.00%    MPKI:0.00
PC:148d4     Total:25      MisBP:0   MisRate:0.00%    MPKI:0.00
PC:32798     Total:2      MisBP:0   MisRate:0.00%    MPKI:0.00
PC:148d6     Total:25      MisBP:0   MisRate:0.00%    MPKI:0.00
PC:148da     Total:29      MisBP:0   MisRate:0.00%    MPKI:0.00
PC:148de     Total:29      MisBP:0   MisRate:0.00%    MPKI:0.00
PC:14898     Total:28      MisBP:0   MisRate:0.00%    MPKI:0.00
PC:148e6     Total:29      MisBP:0   MisRate:0.00%    MPKI:0.00
PC:148ea     Total:29      MisBP:0   MisRate:0.00%    MPKI:0.00
PC:2d7ce     Total:30      MisBP:0   MisRate:0.00%    MPKI:0.00
PC:148f0     Total:116      MisBP:0   MisRate:0.00%    MPKI:0.00
PC:327b4     Total:2      MisBP:0   MisRate:0.00%    MPKI:0.00
PC:1483a     Total:25      MisBP:0   MisRate:0.00%    MPKI:0.00
PC:14842     Total:25      MisBP:0   MisRate:0.00%    MPKI:0.00
PC:14846     Total:25      MisBP:0   MisRate:0.00%    MPKI:0.00
PC:1484a     Total:25      MisBP:0   MisRate:0.00%    MPKI:0.00
PC:1484e     Total:25      MisBP:0   MisRate:0.00%    MPKI:0.00
PC:14852     Total:25      MisBP:0   MisRate:0.00%    MPKI:0.00
PC:14854     Total:25      MisBP:0   MisRate:0.00%    MPKI:0.00
PC:32718     Total:3      MisBP:0   MisRate:0.00%    MPKI:0.00
PC:138fc     Total:18      MisBP:0   MisRate:0.00%    MPKI:0.00
PC:13c3a     Total:19      MisBP:0   MisRate:0.00%    MPKI:0.00
PC:13c3c     Total:19      MisBP:0   MisRate:0.00%    MPKI:0.00
PC:13c3e     Total:19      MisBP:0   MisRate:0.00%    MPKI:0.00
PC:13c40     Total:19      MisBP:0   MisRate:0.00%    MPKI:0.00
PC:13c42     Total:19      MisBP:0   MisRate:0.00%    MPKI:0.00
PC:13c44     Total:19      MisBP:0   MisRate:0.00%    MPKI:0.00
PC:13c46     Total:19      MisBP:0   MisRate:0.00%    MPKI:0.00
PC:138f0     Total:170      MisBP:0   MisRate:0.00%    MPKI:0.00
PC:138f4     Total:18      MisBP:0   MisRate:0.00%    MPKI:0.00
PC:138f6     Total:18      MisBP:0   MisRate:0.00%    MPKI:0.00
PC:101b8     Total:7      MisBP:0   MisRate:0.00%    MPKI:0.00
PC:138f8     Total:18      MisBP:0   MisRate:0.00%    MPKI:0.00
PC:138fa     Total:18      MisBP:0   MisRate:0.00%    MPKI:0.00
PC:101bc     Total:1      MisBP:0   MisRate:0.00%    MPKI:0.00
PC:13c38     Total:19      MisBP:0   MisRate:0.00%    MPKI:0.00
PC:13900     Total:12      MisBP:0   MisRate:0.00%    MPKI:0.00
PC:13902     Total:1451      MisBP:0   MisRate:0.00%    MPKI:0.00
PC:13906     Total:1451      MisBP:0   MisRate:0.00%    MPKI:0.00
PC:13908     Total:1451      MisBP:0   MisRate:0.00%    MPKI:0.00
PC:1390c     Total:9      MisBP:0   MisRate:0.00%    MPKI:0.00
PC:1390e     Total:9      MisBP:0   MisRate:0.00%    MPKI:0.00
PC:13912     Total:9      MisBP:0   MisRate:0.00%    MPKI:0.00
PC:13914     Total:9      MisBP:0   MisRate:0.00%    MPKI:0.00
PC:13916     Total:9      MisBP:0   MisRate:0.00%    MPKI:0.00
PC:13918     Total:9      MisBP:0   MisRate:0.00%    MPKI:0.00
PC:1391a     Total:9      MisBP:0   MisRate:0.00%    MPKI:0.00
PC:1391c     Total:9      MisBP:0   MisRate:0.00%    MPKI:0.00
PC:13920     Total:9      MisBP:0   MisRate:0.00%    MPKI:0.00
PC:13c0a     Total:9      MisBP:0   MisRate:0.00%    MPKI:0.00
PC:3275c     Total:3      MisBP:0   MisRate:0.00%    MPKI:0.00
PC:1489c     Total:28      MisBP:0   MisRate:0.00%    MPKI:0.00
PC:32760     Total:3      MisBP:0   MisRate:0.00%    MPKI:0.00
PC:10eb8     Total:7      MisBP:0   MisRate:0.00%    MPKI:0.00
PC:10ec4     Total:5      MisBP:0   MisRate:0.00%    MPKI:0.00
PC:10ed2     Total:5      MisBP:0   MisRate:0.00%    MPKI:0.00
PC:10ee6     Total:10      MisBP:0   MisRate:0.00%    MPKI:0.00
PC:10efa     Total:9      MisBP:0   MisRate:0.00%    MPKI:0.00
PC:10fe4     Total:9      MisBP:0   MisRate:0.00%    MPKI:0.00
PC:10fea     Total:9      MisBP:0   MisRate:0.00%    MPKI:0.00
PC:325ec     Total:24      MisBP:0   MisRate:0.00%    MPKI:0.00
PC:10ff2     Total:9      MisBP:0   MisRate:0.00%    MPKI:0.00
PC:325f4     Total:24      MisBP:0   MisRate:0.00%    MPKI:0.00
PC:13c08     Total:63      MisBP:0   MisRate:0.00%    MPKI:0.00
PC:2da1e     Total:13      MisBP:0   MisRate:0.00%    MPKI:0.00
PC:13c0c     Total:12      MisBP:0   MisRate:0.00%    MPKI:0.00
PC:13c0e     Total:8      MisBP:0   MisRate:0.00%    MPKI:0.00
PC:13c10     Total:8      MisBP:0   MisRate:0.00%    MPKI:0.00
PC:13c14     Total:8      MisBP:0   MisRate:0.00%    MPKI:0.00
PC:13c18     Total:8      MisBP:0   MisRate:0.00%    MPKI:0.00
PC:13c1a     Total:8      MisBP:0   MisRate:0.00%    MPKI:0.00
PC:13c1e     Total:8      MisBP:0   MisRate:0.00%    MPKI:0.00
PC:13c22     Total:8      MisBP:0   MisRate:0.00%    MPKI:0.00
PC:13c26     Total:8      MisBP:0   MisRate:0.00%    MPKI:0.00
PC:13c2a     Total:2686      MisBP:0   MisRate:0.00%    MPKI:0.00
PC:13c2e     Total:2686      MisBP:0   MisRate:0.00%    MPKI:0.00
PC:13c32     Total:1343      MisBP:0   MisRate:0.00%    MPKI:0.00
PC:13c36     Total:19      MisBP:0   MisRate:0.00%    MPKI:0.00
PC:32788     Total:2      MisBP:0   MisRate:0.00%    MPKI:0.00
PC:32710     Total:3      MisBP:0   MisRate:0.00%    MPKI:0.00
PC:32714     Total:3      MisBP:0   MisRate:0.00%    MPKI:0.00
PC:32740     Total:3      MisBP:0   MisRate:0.00%    MPKI:0.00
PC:32744     Total:3      MisBP:0   MisRate:0.00%    MPKI:0.00
PC:32748     Total:3      MisBP:0   MisRate:0.00%    MPKI:0.00
PC:32764     Total:3      MisBP:0   MisRate:0.00%    MPKI:0.00
PC:32768     Total:2      MisBP:0   MisRate:0.00%    MPKI:0.00
PC:3276c     Total:2      MisBP:0   MisRate:0.00%    MPKI:0.00
PC:32770     Total:2      MisBP:0   MisRate:0.00%    MPKI:0.00
PC:32774     Total:2      MisBP:0   MisRate:0.00%    MPKI:0.00
PC:32778     Total:2      MisBP:0   MisRate:0.00%    MPKI:0.00
PC:3277c     Total:2      MisBP:0   MisRate:0.00%    MPKI:0.00
PC:32780     Total:2      MisBP:0   MisRate:0.00%    MPKI:0.00
PC:32784     Total:2      MisBP:0   MisRate:0.00%    MPKI:0.00
PC:326f8     Total:3      MisBP:0   MisRate:0.00%    MPKI:0.00
PC:3278c     Total:2      MisBP:0   MisRate:0.00%    MPKI:0.00
PC:3279c     Total:2      MisBP:0   MisRate:0.00%    MPKI:0.00
PC:327a0     Total:2      MisBP:0   MisRate:0.00%    MPKI:0.00
PC:327a4     Total:2      MisBP:0   MisRate:0.00%    MPKI:0.00
PC:327a8     Total:2      MisBP:0   MisRate:0.00%    MPKI:0.00
PC:327ac     Total:2      MisBP:0   MisRate:0.00%    MPKI:0.00
PC:327b0     Total:2      MisBP:0   MisRate:0.00%    MPKI:0.00
PC:327b8     Total:2      MisBP:0   MisRate:0.00%    MPKI:0.00
PC:327bc     Total:2      MisBP:0   MisRate:0.00%    MPKI:0.00
PC:327c0     Total:2      MisBP:0   MisRate:0.00%    MPKI:0.00
PC:327c4     Total:2      MisBP:0   MisRate:0.00%    MPKI:0.00
PC:327c8     Total:2      MisBP:0   MisRate:0.00%    MPKI:0.00
PC:327cc     Total:2      MisBP:0   MisRate:0.00%    MPKI:0.00
PC:327d0     Total:1      MisBP:0   MisRate:0.00%    MPKI:0.00
PC:32594     Total:24      MisBP:0   MisRate:0.00%    MPKI:0.00
PC:3255c     Total:24      MisBP:0   MisRate:0.00%    MPKI:0.00
PC:32560     Total:24      MisBP:0   MisRate:0.00%    MPKI:0.00
PC:32564     Total:24      MisBP:0   MisRate:0.00%    MPKI:0.00
PC:32568     Total:24      MisBP:0   MisRate:0.00%    MPKI:0.00
PC:3256c     Total:24      MisBP:0   MisRate:0.00%    MPKI:0.00
PC:32570     Total:24      MisBP:0   MisRate:0.00%    MPKI:0.00
PC:32574     Total:24      MisBP:0   MisRate:0.00%    MPKI:0.00
PC:32578     Total:24      MisBP:0   MisRate:0.00%    MPKI:0.00
PC:3257c     Total:24      MisBP:0   MisRate:0.00%    MPKI:0.00
PC:32580     Total:24      MisBP:0   MisRate:0.00%    MPKI:0.00
PC:32584     Total:24      MisBP:0   MisRate:0.00%    MPKI:0.00
PC:32588     Total:24      MisBP:0   MisRate:0.00%    MPKI:0.00
PC:3258c     Total:24      MisBP:0   MisRate:0.00%    MPKI:0.00
PC:32590     Total:24      MisBP:0   MisRate:0.00%    MPKI:0.00
PC:327d4     Total:1      MisBP:0   MisRate:0.00%    MPKI:0.00
PC:3259c     Total:24      MisBP:0   MisRate:0.00%    MPKI:0.00
PC:325a0     Total:24      MisBP:0   MisRate:0.00%    MPKI:0.00
PC:325a4     Total:24      MisBP:0   MisRate:0.00%    MPKI:0.00
PC:325a8     Total:24      MisBP:0   MisRate:0.00%    MPKI:0.00
PC:325ac     Total:24      MisBP:0   MisRate:0.00%    MPKI:0.00
PC:325d8     Total:24      MisBP:0   MisRate:0.00%    MPKI:0.00
PC:3262c     Total:23      MisBP:0   MisRate:0.00%    MPKI:0.00
PC:3264c     Total:22      MisBP:0   MisRate:0.00%    MPKI:0.00
PC:32650     Total:22      MisBP:0   MisRate:0.00%    MPKI:0.00
PC:32658     Total:22      MisBP:0   MisRate:0.00%    MPKI:0.00
PC:3265c     Total:22      MisBP:0   MisRate:0.00%    MPKI:0.00
PC:326d0     Total:3      MisBP:0   MisRate:0.00%    MPKI:0.00
[...]
PC:2d5ce     Total:30      MisBP:0   MisRate:0.00%    MPKI:0.00
PC:2d540     Total:33      MisBP:0   MisRate:0.00%    MPKI:0.00
PC:2d5e2     Total:1      MisBP:0   MisRate:0.00%    MPKI:0.00
PC:2ef42     Total:30      MisBP:0   MisRate:0.00%    MPKI:0.00
PC:32680     Total:22      MisBP:0   MisRate:0.00%    MPKI:0.00
PC:2d5e6     Total:1      MisBP:0   MisRate:0.00%    MPKI:0.00
PC:13a1e     Total:8      MisBP:0   MisRate:0.00%    MPKI:0.00
PC:2cace     Total:1      MisBP:0   MisRate:0.00%    MPKI:0.00
PC:1481c     Total:25      MisBP:0   MisRate:0.00%    MPKI:0.00
PC:326e0     Total:3      MisBP:0   MisRate:0.00%    MPKI:0.00
PC:13c4e     Total:1      MisBP:0   MisRate:0.00%    MPKI:0.00
PC:2d5a6     Total:14      MisBP:0   MisRate:0.00%    MPKI:0.00
PC:2efa4     Total:22      MisBP:0   MisRate:0.00%    MPKI:0.00
PC:13a18     Total:8      MisBP:0   MisRate:0.00%    MPKI:0.00
PC:2c8a6     Total:12      MisBP:0   MisRate:0.00%    MPKI:0.00
PC:10eb6     Total:7      MisBP:0   MisRate:0.00%    MPKI:0.00
PC:324b8     Total:2      MisBP:0   MisRate:0.00%    MPKI:0.00
PC:13a1a     Total:8      MisBP:0   MisRate:0.00%    MPKI:0.00
PC:2c8aa     Total:12      MisBP:0   MisRate:0.00%    MPKI:0.00
PC:10eba     Total:7      MisBP:0   MisRate:0.00%    MPKI:0.00
PC:324bc     Total:2      MisBP:0   MisRate:0.00%    MPKI:0.00
PC:2d782     Total:4      MisBP:0   MisRate:0.00%    MPKI:0.00
PC:2c8ac     Total:12      MisBP:0   MisRate:0.00%    MPKI:0.00
PC:10ebc     Total:7      MisBP:0   MisRate:0.00%    MPKI:0.00
PC:13a20     Total:8      MisBP:0   MisRate:0.00%    MPKI:0.00
PC:2cf56     Total:1      MisBP:0   MisRate:0.00%    MPKI:0.00
PC:13a3a     Total:4132      MisBP:0   MisRate:0.00%    MPKI:0.00
PC:13820     Total:2457299      MisBP:0   MisRate:0.00%    MPKI:0.00
PC:2cd3c     Total:26      MisBP:0   MisRate:0.00%    MPKI:0.00
PC:13c5a     Total:47      MisBP:0   MisRate:0.00%    MPKI:0.00
PC:2c8b2     Total:12      MisBP:0   MisRate:0.00%    MPKI:0.00
PC:2c8b6     Total:12      MisBP:0   MisRate:0.00%    MPKI:0.00
PC:10ec6     Total:5      MisBP:0   MisRate:0.00%    MPKI:0.00
PC:13a2a     Total:13      MisBP:0   MisRate:0.00%    MPKI:0.00
PC:2cf46     Total:13      MisBP:0   MisRate:0.00%    MPKI:0.00
PC:2cdfe     Total:1      MisBP:0   MisRate:0.00%    MPKI:0.00
PC:2c8fa     Total:1      MisBP:0   MisRate:0.00%    MPKI:0.00
PC:3250c     Total:4      MisBP:0   MisRate:0.00%    MPKI:0.00
PC:10f0a     Total:2      MisBP:0   MisRate:0.00%    MPKI:0.00
PC:2c8fe     Total:1      MisBP:0   MisRate:0.00%    MPKI:0.00
PC:32510     Total:2      MisBP:0   MisRate:0.00%    MPKI:0.00
PC:10f0e     Total:2      MisBP:0   MisRate:0.00%    MPKI:0.00
PC:1103c     Total:2      MisBP:0   MisRate:0.00%    MPKI:0.00
PC:2cdde     Total:1      MisBP:0   MisRate:0.00%    MPKI:0.00
PC:10184     Total:4      MisBP:0   MisRate:0.00%    MPKI:0.00
PC:2cde2     Total:1      MisBP:0   MisRate:0.00%    MPKI:0.00
PC:10188     Total:1      MisBP:0   MisRate:0.00%    MPKI:0.00
PC:2cde8     Total:1      MisBP:0   MisRate:0.00%    MPKI:0.00
PC:2cdf6     Total:1      MisBP:0   MisRate:0.00%    MPKI:0.00
PC:1019c     Total:2      MisBP:0   MisRate:0.00%    MPKI:0.00
PC:10f06     Total:2      MisBP:0   MisRate:0.00%    MPKI:0.00
PC:138e2     Total:16621      MisBP:0   MisRate:0.00%    MPKI:0.00
PC:101a4     Total:2      MisBP:0   MisRate:0.00%    MPKI:0.00
PC:2cac2     Total:1      MisBP:0   MisRate:0.00%    MPKI:0.00
PC:326d4     Total:3      MisBP:0   MisRate:0.00%    MPKI:0.00
PC:2cac8     Total:1      MisBP:0   MisRate:0.00%    MPKI:0.00
PC:14816     Total:25      MisBP:0   MisRate:0.00%    MPKI:0.00
PC:2cadc     Total:1      MisBP:0   MisRate:0.00%    MPKI:0.00
PC:1482a     Total:25      MisBP:0   MisRate:0.00%    MPKI:0.00
PC:2cade     Total:1      MisBP:0   MisRate:0.00%    MPKI:0.00
PC:326f0     Total:3      MisBP:0   MisRate:0.00%    MPKI:0.00
PC:2cae0     Total:1      MisBP:0   MisRate:0.00%    MPKI:0.00
PC:1482e     Total:25      MisBP:0   MisRate:0.00%    MPKI:0.00
PC:2cae2     Total:1      MisBP:0   MisRate:0.00%    MPKI:0.00
PC:2c8e0     Total:1      MisBP:0   MisRate:0.00%    MPKI:0.00
PC:13a62     Total:3622      MisBP:0   MisRate:0.00%    MPKI:0.00
PC:13a64     Total:3621      MisBP:0   MisRate:0.00%    MPKI:0.00
PC:2f454     Total:3      MisBP:0   MisRate:0.00%    MPKI:0.00
PC:13a6c     Total:3487      MisBP:0   MisRate:0.00%    MPKI:0.00
PC:13a78     Total:3444      MisBP:0   MisRate:0.00%    MPKI:0.00
PC:2f45a     Total:3      MisBP:0   MisRate:0.00%    MPKI:0.00
PC:2f45e     Total:3      MisBP:0   MisRate:0.00%    MPKI:0.00
PC:2c8d4     Total:1      MisBP:0   MisRate:0.00%    MPKI:0.00
PC:2c8d8     Total:1      MisBP:0   MisRate:0.00%    MPKI:0.00
PC:2c8da     Total:1      MisBP:0   MisRate:0.00%    MPKI:0.00
PC:10eea     Total:10      MisBP:0   MisRate:0.00%    MPKI:0.00
PC:2c8de     Total:1      MisBP:0   MisRate:0.00%    MPKI:0.00
PC:10eee     Total:10      MisBP:0   MisRate:0.00%    MPKI:0.00
PC:326f4     Total:3      MisBP:0   MisRate:0.00%    MPKI:0.00
PC:10ef0     Total:10      MisBP:0   MisRate:0.00%    MPKI:0.00
PC:2c8e4     Total:1      MisBP:0   MisRate:0.00%    MPKI:0.00
PC:10ef4     Total:10      MisBP:0   MisRate:0.00%    MPKI:0.00
PC:2d538     Total:38      MisBP:0   MisRate:0.00%    MPKI:0.00
PC:2c8e8     Total:1      MisBP:0   MisRate:0.00%    MPKI:0.00
PC:10ef8     Total:9      MisBP:0   MisRate:0.00%    MPKI:0.00
PC:2c8ec     Total:1      MisBP:0   MisRate:0.00%    MPKI:0.00
PC:2c8ee     Total:1      MisBP:0   MisRate:0.00%    MPKI:0.00
PC:10efe     Total:2      MisBP:0   MisRate:0.00%    MPKI:0.00
PC:2c8f2     Total:1      MisBP:0   MisRate:0.00%    MPKI:0.00
PC:10f02     Total:1      MisBP:0   MisRate:0.00%    MPKI:0.00
PC:2c8f4     Total:1      MisBP:0   MisRate:0.00%    MPKI:0.00
PC:2c8f6     Total:1      MisBP:0   MisRate:0.00%    MPKI:0.00
PC:2d7be     Total:20      MisBP:0   MisRate:0.00%    MPKI:0.00
PC:10b44     Total:5      MisBP:0   MisRate:0.00%    MPKI:0.00
PC:2d79e     Total:1      MisBP:0   MisRate:0.00%    MPKI:0.00
PC:10b46     Total:5      MisBP:0   MisRate:0.00%    MPKI:0.00
PC:2d7a0     Total:1      MisBP:0   MisRate:0.00%    MPKI:0.00
PC:10b4a     Total:5      MisBP:0   MisRate:0.00%    MPKI:0.00
PC:2d7a4     Total:1      MisBP:0   MisRate:0.00%    MPKI:0.00
PC:10b4e     Total:1      MisBP:0   MisRate:0.00%    MPKI:0.00
PC:10b52     Total:1      MisBP:0   MisRate:0.00%    MPKI:0.00
PC:10b54     Total:1      MisBP:0   MisRate:0.00%    MPKI:0.00
PC:10b56     Total:1      MisBP:0   MisRate:0.00%    MPKI:0.00
PC:10b58     Total:1      MisBP:0   MisRate:0.00%    MPKI:0.00
PC:10b5c     Total:1      MisBP:0   MisRate:0.00%    MPKI:0.00
PC:10b60     Total:1      MisBP:0   MisRate:0.00%    MPKI:0.00
PC:10b64     Total:1      MisBP:0   MisRate:0.00%    MPKI:0.00
PC:2d79c     Total:1      MisBP:0   MisRate:0.00%    MPKI:0.00
PC:10b66     Total:1      MisBP:0   MisRate:0.00%    MPKI:0.00
PC:2d7c0     Total:17      MisBP:0   MisRate:0.00%    MPKI:0.00
PC:10b6a     Total:1      MisBP:0   MisRate:0.00%    MPKI:0.00
PC:2d7c4     Total:17      MisBP:0   MisRate:0.00%    MPKI:0.00
PC:10b6c     Total:1      MisBP:0   MisRate:0.00%    MPKI:0.00
PC:10ad6     Total:7      MisBP:0   MisRate:0.00%    MPKI:0.00
PC:10ae2     Total:9      MisBP:0   MisRate:0.00%    MPKI:0.00
PC:10afa     Total:9      MisBP:0   MisRate:0.00%    MPKI:0.00
PC:10b08     Total:9      MisBP:0   MisRate:0.00%    MPKI:0.00
PC:10b1e     Total:9      MisBP:0   MisRate:0.00%    MPKI:0.00
PC:10b24     Total:9      MisBP:0   MisRate:0.00%    MPKI:0.00
PC:10b28     Total:9      MisBP:0   MisRate:0.00%    MPKI:0.00
PC:10b2c     Total:9      MisBP:0   MisRate:0.00%    MPKI:0.00
PC:14844     Total:25      MisBP:0   MisRate:0.00%    MPKI:0.00
PC:2cae4     Total:1      MisBP:0   MisRate:0.00%    MPKI:0.00
PC:14832     Total:25      MisBP:0   MisRate:0.00%    MPKI:0.00
PC:2cae8     Total:1      MisBP:0   MisRate:0.00%    MPKI:0.00
PC:14836     Total:25      MisBP:0   MisRate:0.00%    MPKI:0.00
PC:2caea     Total:1      MisBP:0   MisRate:0.00%    MPKI:0.00
PC:326fc     Total:3      MisBP:0   MisRate:0.00%    MPKI:0.00
PC:2caee     Total:1      MisBP:0   MisRate:0.00%    MPKI:0.00
PC:32700     Total:3      MisBP:0   MisRate:0.00%    MPKI:0.00
PC:2caf0     Total:1      MisBP:0   MisRate:0.00%    MPKI:0.00
PC:1483e     Total:25      MisBP:0   MisRate:0.00%    MPKI:0.00
PC:2caf2     Total:1      MisBP:0   MisRate:0.00%    MPKI:0.00
PC:32704     Total:3      MisBP:0   MisRate:0.00%    MPKI:0.00
PC:2caf6     Total:1      MisBP:0   MisRate:0.00%    MPKI:0.00
PC:2c8e6     Total:1      MisBP:0   MisRate:0.00%    MPKI:0.00
PC:32708     Total:3      MisBP:0   MisRate:0.00%    MPKI:0.00
PC:2cafa     Total:1      MisBP:0   MisRate:0.00%    MPKI:0.00
PC:3270c     Total:3      MisBP:0   MisRate:0.00%    MPKI:0.00
PC:10b34     Total:11      MisBP:0   MisRate:0.00%    MPKI:0.00
PC:2d78e     Total:1      MisBP:0   MisRate:0.00%    MPKI:0.00
PC:10b38     Total:11      MisBP:0   MisRate:0.00%    MPKI:0.00
PC:2d792     Total:1      MisBP:0   MisRate:0.00%    MPKI:0.00
PC:10b3c     Total:11      MisBP:0   MisRate:0.00%    MPKI:0.00
PC:2d796     Total:1      MisBP:0   MisRate:0.00%    MPKI:0.00
PC:2d798     Total:1      MisBP:0   MisRate:0.00%    MPKI:0.00
PC:10b40     Total:5      MisBP:0   MisRate:0.00%    MPKI:0.00
PC:2d79a     Total:1      MisBP:0   MisRate:0.00%    MPKI:0.00
PC:10b42     Total:5      MisBP:0   MisRate:0.00%    MPKI:0.00
PC:2d7f8     Total:17      MisBP:0   MisRate:0.00%    MPKI:0.00
PC:2d556     Total:32      MisBP:0   MisRate:0.00%    MPKI:0.00
PC:147ee     Total:25      MisBP:0   MisRate:0.00%    MPKI:0.00
PC:2d558     Total:32      MisBP:0   MisRate:0.00%    MPKI:0.00
PC:13810     Total:8369570      MisBP:0   MisRate:0.00%    MPKI:0.00
PC:2d5ac     Total:34      MisBP:0   MisRate:0.00%    MPKI:0.00
PC:2d7f0     Total:17      MisBP:0   MisRate:0.00%    MPKI:0.00
PC:13814     Total:5184208      MisBP:0   MisRate:0.00%    MPKI:0.00
PC:2d7f4     Total:17      MisBP:0   MisRate:0.00%    MPKI:0.00
PC:326e8     Total:3      MisBP:0   MisRate:0.00%    MPKI:0.00
PC:2d554     Total:33      MisBP:0   MisRate:0.00%    MPKI:0.00
PC:147fe     Total:25      MisBP:0   MisRate:0.00%    MPKI:0.00
PC:14824     Total:25      MisBP:0   MisRate:0.00%    MPKI:0.00
PC:2d7fe     Total:16      MisBP:0   MisRate:0.00%    MPKI:0.00
PC:2efaa     Total:21      MisBP:0   MisRate:0.00%    MPKI:0.00
PC:2d59c     Total:14      MisBP:0   MisRate:0.00%    MPKI:0.00
PC:2ef74     Total:28      MisBP:0   MisRate:0.00%    MPKI:0.00
PC:2d80e     Total:1      MisBP:0   MisRate:0.00%    MPKI:0.00
PC:2d488     Total:39      MisBP:0   MisRate:0.00%    MPKI:0.00
PC:2d48c     Total:39      MisBP:0   MisRate:0.00%    MPKI:0.00
PC:2d57e     Total:51      MisBP:0   MisRate:0.00%    MPKI:0.00
PC:2d5ea     Total:1      MisBP:0   MisRate:0.00%    MPKI:0.00
PC:2d542     Total:33      MisBP:0   MisRate:0.00%    MPKI:0.00
PC:2f450     Total:3      MisBP:0   MisRate:0.00%    MPKI:0.00
PC:2ef84     Total:24      MisBP:0   MisRate:0.00%    MPKI:0.00
PC:2d548     Total:33      MisBP:0   MisRate:0.00%    MPKI:0.00
PC:2d582     Total:51      MisBP:0   MisRate:0.00%    MPKI:0.00
PC:2d54c     Total:33      MisBP:0   MisRate:0.00%    MPKI:0.00
PC:2ef80     Total:27      MisBP:0   MisRate:0.00%    MPKI:0.00
PC:2d580     Total:51      MisBP:0   MisRate:0.00%    MPKI:0.00
PC:2d574     Total:54      MisBP:0   MisRate:0.00%    MPKI:0.00
PC:2d57a     Total:52      MisBP:0   MisRate:0.00%    MPKI:0.00
PC:2d550     Total:33      MisBP:0   MisRate:0.00%    MPKI:0.00
PC:147f2     Total:27      MisBP:0   MisRate:0.00%    MPKI:0.00
PC:2ef78     Total:28      MisBP:0   MisRate:0.00%    MPKI:0.00
PC:2d578     Total:52      MisBP:0   MisRate:0.00%    MPKI:0.00
PC:2d552     Total:33      MisBP:0   MisRate:0.00%    MPKI:0.00
PC:2ef52     Total:27      MisBP:0   MisRate:0.00%    MPKI:0.00
PC:2d576     Total:54      MisBP:0   MisRate:0.00%    MPKI:0.00
PC:32690     Total:22      MisBP:0   MisRate:0.00%    MPKI:0.00
PC:2f43a     Total:18      MisBP:0   MisRate:0.00%    MPKI:0.00
PC:2c8ce     Total:1      MisBP:0   MisRate:0.00%    MPKI:0.00
PC:2d564     Total:55      MisBP:0   MisRate:0.00%    MPKI:0.00
PC:2d55e     Total:56      MisBP:0   MisRate:0.00%    MPKI:0.00
PC:10ede     Total:10      MisBP:0   MisRate:0.00%    MPKI:0.00
PC:13a42     Total:3762      MisBP:0   MisRate:0.00%    MPKI:0.00
PC:2f432     Total:18      MisBP:0   MisRate:0.00%    MPKI:0.00
PC:2c8d2     Total:1      MisBP:0   MisRate:0.00%    MPKI:0.00
PC:10ee2     Total:10      MisBP:0   MisRate:0.00%    MPKI:0.00
PC:13a4a     Total:3755      MisBP:0   MisRate:0.00%    MPKI:0.00
PC:2d594     Total:41      MisBP:0   MisRate:0.00%    MPKI:0.00
PC:2d55c     Total:56      MisBP:0   MisRate:0.00%    MPKI:0.00
PC:13a50     Total:3755      MisBP:0   MisRate:0.00%    MPKI:0.00
PC:2f440     Total:17      MisBP:0   MisRate:0.00%    MPKI:0.00
PC:2d53c     Total:38      MisBP:0   MisRate:0.00%    MPKI:0.00
PC:13a56     Total:3633      MisBP:0   MisRate:0.00%    MPKI:0.00
PC:13a5e     Total:3629      MisBP:0   MisRate:0.00%    MPKI:0.00
PC:2ef9a     Total:22      MisBP:0   MisRate:0.00%    MPKI:0.00
PC:13a60     Total:3622      MisBP:0   MisRate:0.00%    MPKI:0.00
PC:2d598     Total:14      MisBP:0   MisRate:0.00%    MPKI:0.00
PC:2d56c     Total:54      MisBP:0   MisRate:0.00%    MPKI:0.00
PC:2d496     Total:1      MisBP:0   MisRate:0.00%    MPKI:0.00
PC:2d572     Total:54      MisBP:0   MisRate:0.00%    MPKI:0.00
PC:2d49a     Total:1      MisBP:0   MisRate:0.00%    MPKI:0.00
PC:2d49c     Total:1      MisBP:0   MisRate:0.00%    MPKI:0.00
PC:2d4a0     Total:1      MisBP:0   MisRate:0.00%    MPKI:0.00
PC:2d494     Total:1      MisBP:0   MisRate:0.00%    MPKI:0.00
PC:2d570     Total:54      MisBP:0   MisRate:0.00%    MPKI:0.00
PC:2d4a2     Total:1      MisBP:0   MisRate:0.00%    MPKI:0.00
PC:326d8     Total:3      MisBP:0   MisRate:0.00%    MPKI:0.00
PC:2d422     Total:32      MisBP:0   MisRate:0.00%    MPKI:0.00
PC:2d56a     Total:54      MisBP:0   MisRate:0.00%    MPKI:0.00
PC:2d568     Total:55      MisBP:0   MisRate:0.00%    MPKI:0.00
PC:2c8c6     Total:1      MisBP:0   MisRate:0.00%    MPKI:0.00
PC:2d566     Total:55      MisBP:0   MisRate:0.00%    MPKI:0.00
PC:2d490     Total:39      MisBP:0   MisRate:0.00%    MPKI:0.00
PC:10ed6     Total:10      MisBP:0   MisRate:0.00%    MPKI:0.00
PC:32388     Total:2      MisBP:1   MisRate:50.00%    MPKI:0.00
PC:2d618     Total:4      MisBP:1   MisRate:25.00%    MPKI:0.00
PC:2d4ac     Total:13      MisBP:1   MisRate:7.69%    MPKI:0.00
PC:2d77c     Total:7      MisBP:1   MisRate:14.29%    MPKI:0.00
PC:13c4a     Total:47      MisBP:1   MisRate:2.13%    MPKI:0.00
PC:2d784     Total:4      MisBP:1   MisRate:25.00%    MPKI:0.00
PC:32444     Total:3      MisBP:1   MisRate:33.33%    MPKI:0.00
PC:10b30     Total:9      MisBP:1   MisRate:11.11%    MPKI:0.00
PC:2d3c6     Total:12      MisBP:1   MisRate:8.33%    MPKI:0.00
PC:32394     Total:1      MisBP:1   MisRate:100.00%    MPKI:0.00
PC:2d492     Total:39      MisBP:1   MisRate:2.56%    MPKI:0.00
PC:2d8e8     Total:23      MisBP:1   MisRate:4.35%    MPKI:0.00
PC:2cf4a     Total:13      MisBP:1   MisRate:7.69%    MPKI:0.00
PC:324b0     Total:2      MisBP:1   MisRate:50.00%    MPKI:0.00
PC:2c9ba     Total:14      MisBP:1   MisRate:7.14%    MPKI:0.00
PC:2cd54     Total:25      MisBP:1   MisRate:4.00%    MPKI:0.00
PC:2f43e     Total:18      MisBP:1   MisRate:5.56%    MPKI:0.00
PC:10b3e     Total:10      MisBP:2   MisRate:20.00%    MPKI:0.00
PC:10158     Total:9      MisBP:2   MisRate:22.22%    MPKI:0.00
PC:13c58     Total:50      MisBP:2   MisRate:4.00%    MPKI:0.00
PC:3249c     Total:3      MisBP:2   MisRate:66.67%    MPKI:0.00
PC:2c998     Total:12      MisBP:2   MisRate:16.67%    MPKI:0.00
PC:2cdd4     Total:5      MisBP:2   MisRate:40.00%    MPKI:0.00
PC:2d9a8     Total:9      MisBP:2   MisRate:22.22%    MPKI:0.00
PC:32410     Total:2      MisBP:2   MisRate:100.00%    MPKI:0.00
PC:2c8ba     Total:12      MisBP:2   MisRate:16.67%    MPKI:0.00
PC:2caa2     Total:21      MisBP:2   MisRate:9.52%    MPKI:0.00
PC:2d8f8     Total:15      MisBP:2   MisRate:13.33%    MPKI:0.00
PC:2c9e8     Total:14      MisBP:2   MisRate:14.29%    MPKI:0.00
PC:2f44a     Total:17      MisBP:2   MisRate:11.76%    MPKI:0.00
PC:2d758     Total:36      MisBP:2   MisRate:5.56%    MPKI:0.00
PC:10efc     Total:9      MisBP:2   MisRate:22.22%    MPKI:0.00
PC:2d9e2     Total:9      MisBP:2   MisRate:22.22%    MPKI:0.00
PC:138e0     Total:92726      MisBP:2   MisRate:0.00%    MPKI:0.00
PC:32494     Total:11      MisBP:3   MisRate:27.27%    MPKI:0.00
PC:2d5be     Total:34      MisBP:3   MisRate:8.82%    MPKI:0.00
PC:2da5c     Total:3      MisBP:3   MisRate:100.00%    MPKI:0.00
PC:13868     Total:21848362      MisBP:3   MisRate:0.00%    MPKI:0.00
PC:2d724     Total:10      MisBP:3   MisRate:30.00%    MPKI:0.00
PC:2ca6c     Total:6      MisBP:3   MisRate:50.00%    MPKI:0.00
PC:13b40     Total:4616      MisBP:3   MisRate:0.06%    MPKI:0.00
PC:2da2e     Total:13      MisBP:3   MisRate:23.08%    MPKI:0.00
PC:2da3e     Total:9      MisBP:3   MisRate:33.33%    MPKI:0.00
PC:139a4     Total:382      MisBP:3   MisRate:0.79%    MPKI:0.00
PC:2d596     Total:41      MisBP:4   MisRate:9.76%    MPKI:0.00
PC:32694     Total:22      MisBP:4   MisRate:18.18%    MPKI:0.00
PC:2d60a     Total:27      MisBP:4   MisRate:14.81%    MPKI:0.00
PC:13ab6     Total:12496      MisBP:4   MisRate:0.03%    MPKI:0.00
PC:2d9f8     Total:11      MisBP:4   MisRate:36.36%    MPKI:0.00
PC:2d7ca     Total:46      MisBP:5   MisRate:10.87%    MPKI:0.00
PC:2ca44     Total:12      MisBP:6   MisRate:50.00%    MPKI:0.00
PC:2d586     Total:50      MisBP:8   MisRate:16.00%    MPKI:0.00
PC:2d628     Total:53      MisBP:8   MisRate:15.09%    MPKI:0.00
PC:1390a     Total:1451      MisBP:9   MisRate:0.62%    MPKI:0.00
PC:10ae0     Total:1389      MisBP:9   MisRate:0.65%    MPKI:0.00
PC:2d71e     Total:17      MisBP:10   MisRate:58.82%    MPKI:0.00
PC:13b6e     Total:63      MisBP:11   MisRate:17.46%    MPKI:0.00
PC:13ba2     Total:2263      MisBP:12   MisRate:0.53%    MPKI:0.00
PC:2d7d0     Total:30      MisBP:12   MisRate:40.00%    MPKI:0.00
PC:13c34     Total:1343      MisBP:16   MisRate:1.19%    MPKI:0.00
PC:2d560     Total:55      MisBP:18   MisRate:32.73%    MPKI:0.00
PC:13b5a     Total:4439      MisBP:21   MisRate:0.47%    MPKI:0.00
PC:137c0     Total:2906552      MisBP:22   MisRate:0.00%    MPKI:0.00
PC:1399e     Total:39694      MisBP:46   MisRate:0.12%    MPKI:0.00
PC:13ad2     Total:59093      MisBP:55   MisRate:0.09%    MPKI:0.00
PC:138a8     Total:23279      MisBP:57   MisRate:0.24%    MPKI:0.00
PC:1389a     Total:39902      MisBP:162   MisRate:0.41%    MPKI:0.00
PC:13834     Total:789104      MisBP:368   MisRate:0.05%    MPKI:0.00
PC:13b30     Total:14473      MisBP:857   MisRate:5.92%    MPKI:0.00
PC:13854     Total:732041      MisBP:1467   MisRate:0.20%    MPKI:0.00
PC:13b22     Total:9180      MisBP:1513   MisRate:16.48%    MPKI:0.00
PC:13adc     Total:46053      MisBP:3268   MisRate:7.10%    MPKI:0.01
PC:13ad8     Total:56558      MisBP:4812   MisRate:8.51%    MPKI:0.02
PC:13acc     Total:48501      MisBP:7253   MisRate:14.95%    MPKI:0.02
PC:138d2     Total:3097441      MisBP:21356   MisRate:0.69%    MPKI:0.07
PC:1382e     Total:3029768      MisBP:23959   MisRate:0.79%    MPKI:0.08
PC:13826     Total:2389567      MisBP:330521   MisRate:13.83%    MPKI:1.07
PC:1376c     Total:2861922      MisBP:438210   MisRate:15.31%    MPKI:1.41
PC:13808     Total:9262930      MisBP:514281   MisRate:5.55%    MPKI:1.66
PC:13818     Total:5177085      MisBP:740821   MisRate:14.31%    MPKI:2.39
PC:137f2     Total:7038958      MisBP:955644   MisRate:13.58%    MPKI:3.08
PC:13812     Total:8365518      MisBP:1077307   MisRate:12.88%    MPKI:3.48
Totfetch:574590246  TotInsts:310000001  TotMis : inf%   MPKI : 13.30
=============finish sim!!!!!!=============
Done running SimPoint!
