Global frequency set at 1000000000000 ticks per second
 Register [printBranch()] ExitCallback !!!!!!! 
gem5 Simulator System.  https://www.gem5.org
gem5 is copyrighted software; use the --copyright option for details.

gem5 version 22.0.0.2
gem5 compiled Sep  7 2022 00:42:18
gem5 started Sep  7 2022 05:51:53
gem5 executing on a100, pid 2814505
command line: /data/zxf/gem5/gem5-prof/build/ARM/gem5.fast --outdir=/data/zxf/checkpoint/spec2006/401.bzip2/prof/bzip2_ckp_13 /data/zxf/gem5/gem5-prof/configs/example/se.py --cpu-type O3CPU --cpu-clock 1GHz --num-cpu 1 --l1d-hwp-type=BOPPrefetcher --caches --l2cache --l1i_size 32kB --l1d_size 32kB --l2_size 1MB --l1i_assoc 8 --l1d_assoc 8 --l2_assoc 16 --cacheline_size 64 --mem-type DDR3_2133_8x8 --mem-size 16GB --restore-simpoint-checkpoint -r 13 --checkpoint-dir /data/zxf/checkpoint/spec2006/401.bzip2/ckpt -c bzip2_base.gcc41-64bit -o 'input.source 280'

info: Standard input is not a terminal, disabling listeners.
Resuming from /data/zxf/checkpoint/spec2006/401.bzip2/ckpt/cpt.simpoint_12_inst_228290000000_weight_0.063282_interval_300000000_warmup_10000000
Resuming from SimPoint #12, start_inst:228290000000, weight:0.063282, interval:300000000, warmup:10000000
Switch at curTick count:10000
Switched CPUS @ tick 140718284985000
[(<m5.objects.ArmCPU.ArmAtomicSimpleCPU object at 0x7f6c8b08abb0>, <m5.objects.ArmCPU.ArmO3CPU object at 0x7f6c8b0a2e20>)]
switching cpus



+++++++++++++++++++++++++zxf print simpoint+++++++++++++++++++++++++++
Warmed up! Dumping and resetting stats!


=============start sim!!!!!!=============
PC:1679e     Total:14      MisBP:0   MisRate:0.00%    MPKI:0.00
PC:167bc     Total:283      MisBP:0   MisRate:0.00%    MPKI:0.00
PC:167ba     Total:283      MisBP:0   MisRate:0.00%    MPKI:0.00
PC:167b6     Total:972      MisBP:0   MisRate:0.00%    MPKI:0.00
PC:167b2     Total:1944      MisBP:0   MisRate:0.00%    MPKI:0.00
PC:167b0     Total:10      MisBP:0   MisRate:0.00%    MPKI:0.00
PC:167ac     Total:10      MisBP:0   MisRate:0.00%    MPKI:0.00
PC:167aa     Total:10      MisBP:0   MisRate:0.00%    MPKI:0.00
PC:167a8     Total:10      MisBP:0   MisRate:0.00%    MPKI:0.00
PC:167a6     Total:10      MisBP:0   MisRate:0.00%    MPKI:0.00
PC:167a2     Total:14      MisBP:0   MisRate:0.00%    MPKI:0.00
PC:167a0     Total:14      MisBP:0   MisRate:0.00%    MPKI:0.00
PC:167be     Total:283      MisBP:0   MisRate:0.00%    MPKI:0.00
PC:1679c     Total:14      MisBP:0   MisRate:0.00%    MPKI:0.00
PC:16798     Total:14      MisBP:0   MisRate:0.00%    MPKI:0.00
PC:16796     Total:2      MisBP:0   MisRate:0.00%    MPKI:0.00
PC:16794     Total:2      MisBP:0   MisRate:0.00%    MPKI:0.00
PC:16790     Total:2      MisBP:0   MisRate:0.00%    MPKI:0.00
PC:1678c     Total:2      MisBP:0   MisRate:0.00%    MPKI:0.00
PC:16788     Total:2      MisBP:0   MisRate:0.00%    MPKI:0.00
PC:16786     Total:2      MisBP:0   MisRate:0.00%    MPKI:0.00
PC:16782     Total:1      MisBP:0   MisRate:0.00%    MPKI:0.00
PC:16780     Total:1      MisBP:0   MisRate:0.00%    MPKI:0.00
PC:18fb0     Total:9      MisBP:0   MisRate:0.00%    MPKI:0.00
PC:167d2     Total:234      MisBP:0   MisRate:0.00%    MPKI:0.00
PC:167ce     Total:227      MisBP:0   MisRate:0.00%    MPKI:0.00
PC:167ca     Total:267      MisBP:0   MisRate:0.00%    MPKI:0.00
PC:167c8     Total:267      MisBP:0   MisRate:0.00%    MPKI:0.00
PC:167c4     Total:274      MisBP:0   MisRate:0.00%    MPKI:0.00
PC:167c0     Total:274      MisBP:0   MisRate:0.00%    MPKI:0.00
PC:18fba     Total:8      MisBP:0   MisRate:0.00%    MPKI:0.00
PC:167fc     Total:8      MisBP:0   MisRate:0.00%    MPKI:0.00
PC:18fb6     Total:8      MisBP:0   MisRate:0.00%    MPKI:0.00
PC:167f8     Total:16      MisBP:0   MisRate:0.00%    MPKI:0.00
PC:167f4     Total:16      MisBP:0   MisRate:0.00%    MPKI:0.00
PC:1677c     Total:5      MisBP:0   MisRate:0.00%    MPKI:0.00
PC:167f0     Total:1026      MisBP:0   MisRate:0.00%    MPKI:0.00
PC:18faa     Total:9      MisBP:0   MisRate:0.00%    MPKI:0.00
PC:167ec     Total:1177      MisBP:0   MisRate:0.00%    MPKI:0.00
PC:18fa8     Total:9      MisBP:0   MisRate:0.00%    MPKI:0.00
PC:167ea     Total:1177      MisBP:0   MisRate:0.00%    MPKI:0.00
PC:18fa6     Total:9      MisBP:0   MisRate:0.00%    MPKI:0.00
PC:167e8     Total:1177      MisBP:0   MisRate:0.00%    MPKI:0.00
PC:18fa4     Total:9      MisBP:0   MisRate:0.00%    MPKI:0.00
PC:167e6     Total:1177      MisBP:0   MisRate:0.00%    MPKI:0.00
PC:167e2     Total:1069      MisBP:0   MisRate:0.00%    MPKI:0.00
PC:1632e     Total:8726      MisBP:0   MisRate:0.00%    MPKI:0.00
PC:1634c     Total:8723      MisBP:0   MisRate:0.00%    MPKI:0.00
PC:1634a     Total:8723      MisBP:0   MisRate:0.00%    MPKI:0.00
PC:16348     Total:8723      MisBP:0   MisRate:0.00%    MPKI:0.00
PC:16346     Total:8723      MisBP:0   MisRate:0.00%    MPKI:0.00
PC:16344     Total:8710      MisBP:0   MisRate:0.00%    MPKI:0.00
PC:16340     Total:8710      MisBP:0   MisRate:0.00%    MPKI:0.00
PC:1633e     Total:8725      MisBP:0   MisRate:0.00%    MPKI:0.00
PC:1633c     Total:8725      MisBP:0   MisRate:0.00%    MPKI:0.00
PC:16338     Total:8725      MisBP:0   MisRate:0.00%    MPKI:0.00
PC:16334     Total:8725      MisBP:0   MisRate:0.00%    MPKI:0.00
PC:16332     Total:8726      MisBP:0   MisRate:0.00%    MPKI:0.00
PC:1634e     Total:8723      MisBP:0   MisRate:0.00%    MPKI:0.00
PC:1632c     Total:8726      MisBP:0   MisRate:0.00%    MPKI:0.00
PC:1632a     Total:8758      MisBP:0   MisRate:0.00%    MPKI:0.00
PC:16328     Total:8758      MisBP:0   MisRate:0.00%    MPKI:0.00
PC:16326     Total:8745      MisBP:0   MisRate:0.00%    MPKI:0.00
PC:16324     Total:8745      MisBP:0   MisRate:0.00%    MPKI:0.00
PC:16322     Total:8747      MisBP:0   MisRate:0.00%    MPKI:0.00
PC:1631e     Total:8735      MisBP:0   MisRate:0.00%    MPKI:0.00
PC:1631c     Total:8737      MisBP:0   MisRate:0.00%    MPKI:0.00
PC:1631a     Total:8742      MisBP:0   MisRate:0.00%    MPKI:0.00
PC:16316     Total:8747      MisBP:0   MisRate:0.00%    MPKI:0.00
PC:16754     Total:6384      MisBP:0   MisRate:0.00%    MPKI:0.00
PC:1677a     Total:5      MisBP:0   MisRate:0.00%    MPKI:0.00
PC:16776     Total:5      MisBP:0   MisRate:0.00%    MPKI:0.00
PC:16772     Total:5      MisBP:0   MisRate:0.00%    MPKI:0.00
PC:1676e     Total:5      MisBP:0   MisRate:0.00%    MPKI:0.00
PC:1676a     Total:5      MisBP:0   MisRate:0.00%    MPKI:0.00
PC:16766     Total:5      MisBP:0   MisRate:0.00%    MPKI:0.00
PC:16762     Total:6      MisBP:0   MisRate:0.00%    MPKI:0.00
PC:1675e     Total:5800      MisBP:0   MisRate:0.00%    MPKI:0.00
PC:1675a     Total:6384      MisBP:0   MisRate:0.00%    MPKI:0.00
PC:16758     Total:6384      MisBP:0   MisRate:0.00%    MPKI:0.00
PC:16756     Total:6384      MisBP:0   MisRate:0.00%    MPKI:0.00
PC:18f90     Total:9      MisBP:0   MisRate:0.00%    MPKI:0.00
PC:1652e     Total:8757      MisBP:0   MisRate:0.00%    MPKI:0.00
PC:1dc26     Total:3      MisBP:0   MisRate:0.00%    MPKI:0.00
PC:164ec     Total:8736      MisBP:0   MisRate:0.00%    MPKI:0.00
PC:16472     Total:8748      MisBP:0   MisRate:0.00%    MPKI:0.00
PC:16400     Total:8842      MisBP:0   MisRate:0.00%    MPKI:0.00
PC:163f8     Total:8874      MisBP:0   MisRate:0.00%    MPKI:0.00
PC:163e4     Total:8765      MisBP:0   MisRate:0.00%    MPKI:0.00
PC:163da     Total:8756      MisBP:0   MisRate:0.00%    MPKI:0.00
PC:1637e     Total:8732      MisBP:0   MisRate:0.00%    MPKI:0.00
PC:16350     Total:8748      MisBP:0   MisRate:0.00%    MPKI:0.00
PC:16842     Total:6027      MisBP:0   MisRate:0.00%    MPKI:0.00
PC:190de     Total:3      MisBP:0   MisRate:0.00%    MPKI:0.00
PC:1685a     Total:6      MisBP:0   MisRate:0.00%    MPKI:0.00
PC:1409a     Total:140      MisBP:0   MisRate:0.00%    MPKI:0.00
PC:190dc     Total:3      MisBP:0   MisRate:0.00%    MPKI:0.00
PC:16858     Total:6      MisBP:0   MisRate:0.00%    MPKI:0.00
PC:14096     Total:140      MisBP:0   MisRate:0.00%    MPKI:0.00
PC:190d8     Total:3      MisBP:0   MisRate:0.00%    MPKI:0.00
PC:16850     Total:6026      MisBP:0   MisRate:0.00%    MPKI:0.00
PC:1684c     Total:6026      MisBP:0   MisRate:0.00%    MPKI:0.00
PC:1684a     Total:6026      MisBP:0   MisRate:0.00%    MPKI:0.00
PC:16846     Total:12054      MisBP:0   MisRate:0.00%    MPKI:0.00
PC:1409c     Total:140      MisBP:0   MisRate:0.00%    MPKI:0.00
PC:16840     Total:6028      MisBP:0   MisRate:0.00%    MPKI:0.00
PC:361fc     Total:69      MisBP:0   MisRate:0.00%    MPKI:0.00
PC:1302e     Total:1      MisBP:0   MisRate:0.00%    MPKI:0.00
PC:361f8     Total:70      MisBP:0   MisRate:0.00%    MPKI:0.00
PC:1302a     Total:1      MisBP:0   MisRate:0.00%    MPKI:0.00
PC:361f4     Total:72      MisBP:0   MisRate:0.00%    MPKI:0.00
PC:13026     Total:1      MisBP:0   MisRate:0.00%    MPKI:0.00
PC:361da     Total:94      MisBP:0   MisRate:0.00%    MPKI:0.00
PC:1300c     Total:1      MisBP:0   MisRate:0.00%    MPKI:0.00
PC:361d6     Total:94      MisBP:0   MisRate:0.00%    MPKI:0.00
PC:1686a     Total:110      MisBP:0   MisRate:0.00%    MPKI:0.00
PC:140b8     Total:140      MisBP:0   MisRate:0.00%    MPKI:0.00
PC:16876     Total:55      MisBP:0   MisRate:0.00%    MPKI:0.00
PC:16872     Total:55      MisBP:0   MisRate:0.00%    MPKI:0.00
PC:140b2     Total:140      MisBP:0   MisRate:0.00%    MPKI:0.00
PC:190f4     Total:3      MisBP:0   MisRate:0.00%    MPKI:0.00
PC:16870     Total:55      MisBP:0   MisRate:0.00%    MPKI:0.00
PC:140b0     Total:140      MisBP:0   MisRate:0.00%    MPKI:0.00
PC:190f2     Total:3      MisBP:0   MisRate:0.00%    MPKI:0.00
PC:1686e     Total:55      MisBP:0   MisRate:0.00%    MPKI:0.00
PC:140ac     Total:140      MisBP:0   MisRate:0.00%    MPKI:0.00
PC:190ee     Total:3      MisBP:0   MisRate:0.00%    MPKI:0.00
PC:13008     Total:1      MisBP:0   MisRate:0.00%    MPKI:0.00
PC:140aa     Total:140      MisBP:0   MisRate:0.00%    MPKI:0.00
PC:190ec     Total:3      MisBP:0   MisRate:0.00%    MPKI:0.00
PC:16868     Total:55      MisBP:0   MisRate:0.00%    MPKI:0.00
PC:140a6     Total:140      MisBP:0   MisRate:0.00%    MPKI:0.00
PC:190e8     Total:3      MisBP:0   MisRate:0.00%    MPKI:0.00
PC:16864     Total:55      MisBP:0   MisRate:0.00%    MPKI:0.00
PC:140a2     Total:140      MisBP:0   MisRate:0.00%    MPKI:0.00
PC:190e4     Total:3      MisBP:0   MisRate:0.00%    MPKI:0.00
PC:16860     Total:6      MisBP:0   MisRate:0.00%    MPKI:0.00
PC:1685e     Total:6      MisBP:0   MisRate:0.00%    MPKI:0.00
PC:18fbe     Total:6      MisBP:0   MisRate:0.00%    MPKI:0.00
PC:1681a     Total:5      MisBP:0   MisRate:0.00%    MPKI:0.00
PC:18fd4     Total:6      MisBP:0   MisRate:0.00%    MPKI:0.00
PC:16816     Total:5      MisBP:0   MisRate:0.00%    MPKI:0.00
PC:18fd2     Total:6      MisBP:0   MisRate:0.00%    MPKI:0.00
PC:16814     Total:5      MisBP:0   MisRate:0.00%    MPKI:0.00
PC:16810     Total:5      MisBP:0   MisRate:0.00%    MPKI:0.00
PC:1680c     Total:5      MisBP:0   MisRate:0.00%    MPKI:0.00
PC:18fc6     Total:6      MisBP:0   MisRate:0.00%    MPKI:0.00
PC:16808     Total:5      MisBP:0   MisRate:0.00%    MPKI:0.00
PC:18fc2     Total:6      MisBP:0   MisRate:0.00%    MPKI:0.00
PC:16804     Total:5      MisBP:0   MisRate:0.00%    MPKI:0.00
PC:18fd8     Total:6      MisBP:0   MisRate:0.00%    MPKI:0.00
PC:16800     Total:5      MisBP:0   MisRate:0.00%    MPKI:0.00
PC:18f9e     Total:9      MisBP:0   MisRate:0.00%    MPKI:0.00
PC:167e0     Total:199      MisBP:0   MisRate:0.00%    MPKI:0.00
PC:18f9a     Total:9      MisBP:0   MisRate:0.00%    MPKI:0.00
PC:167dc     Total:234      MisBP:0   MisRate:0.00%    MPKI:0.00
PC:18f96     Total:9      MisBP:0   MisRate:0.00%    MPKI:0.00
PC:167d8     Total:234      MisBP:0   MisRate:0.00%    MPKI:0.00
PC:167d6     Total:234      MisBP:0   MisRate:0.00%    MPKI:0.00
PC:18f92     Total:9      MisBP:0   MisRate:0.00%    MPKI:0.00
PC:167d4     Total:234      MisBP:0   MisRate:0.00%    MPKI:0.00
PC:18fee     Total:6      MisBP:0   MisRate:0.00%    MPKI:0.00
PC:361c4     Total:118      MisBP:0   MisRate:0.00%    MPKI:0.00
PC:12ff6     Total:4      MisBP:0   MisRate:0.00%    MPKI:0.00
PC:361b2     Total:2012      MisBP:0   MisRate:0.00%    MPKI:0.00
PC:12fe4     Total:1      MisBP:0   MisRate:0.00%    MPKI:0.00
PC:18ffc     Total:6      MisBP:0   MisRate:0.00%    MPKI:0.00
PC:1683e     Total:6336      MisBP:0   MisRate:0.00%    MPKI:0.00
PC:18ff8     Total:6      MisBP:0   MisRate:0.00%    MPKI:0.00
PC:1683a     Total:6336      MisBP:0   MisRate:0.00%    MPKI:0.00
PC:16838     Total:3      MisBP:0   MisRate:0.00%    MPKI:0.00
PC:18ff2     Total:6      MisBP:0   MisRate:0.00%    MPKI:0.00
PC:16834     Total:3      MisBP:0   MisRate:0.00%    MPKI:0.00
PC:16312     Total:8747      MisBP:0   MisRate:0.00%    MPKI:0.00
PC:16830     Total:3      MisBP:0   MisRate:0.00%    MPKI:0.00
PC:18fec     Total:6      MisBP:0   MisRate:0.00%    MPKI:0.00
PC:1682e     Total:3      MisBP:0   MisRate:0.00%    MPKI:0.00
PC:1682c     Total:3      MisBP:0   MisRate:0.00%    MPKI:0.00
PC:16828     Total:3      MisBP:0   MisRate:0.00%    MPKI:0.00
PC:18fe2     Total:6      MisBP:0   MisRate:0.00%    MPKI:0.00
PC:16824     Total:3      MisBP:0   MisRate:0.00%    MPKI:0.00
PC:18fde     Total:6      MisBP:0   MisRate:0.00%    MPKI:0.00
PC:16820     Total:3      MisBP:0   MisRate:0.00%    MPKI:0.00
PC:1681c     Total:5      MisBP:0   MisRate:0.00%    MPKI:0.00
PC:161f6     Total:8715      MisBP:0   MisRate:0.00%    MPKI:0.00
PC:111c8     Total:31      MisBP:0   MisRate:0.00%    MPKI:0.00
PC:16208     Total:8693      MisBP:0   MisRate:0.00%    MPKI:0.00
PC:111c6     Total:31      MisBP:0   MisRate:0.00%    MPKI:0.00
PC:16204     Total:8696      MisBP:0   MisRate:0.00%    MPKI:0.00
PC:111c2     Total:31      MisBP:0   MisRate:0.00%    MPKI:0.00
PC:16200     Total:8696      MisBP:0   MisRate:0.00%    MPKI:0.00
PC:111be     Total:31      MisBP:0   MisRate:0.00%    MPKI:0.00
PC:161fc     Total:8728      MisBP:0   MisRate:0.00%    MPKI:0.00
PC:161fa     Total:8728      MisBP:0   MisRate:0.00%    MPKI:0.00
PC:111b8     Total:38      MisBP:0   MisRate:0.00%    MPKI:0.00
PC:161f8     Total:8715      MisBP:0   MisRate:0.00%    MPKI:0.00
PC:1620a     Total:8693      MisBP:0   MisRate:0.00%    MPKI:0.00
PC:111b4     Total:38      MisBP:0   MisRate:0.00%    MPKI:0.00
PC:161f4     Total:8715      MisBP:0   MisRate:0.00%    MPKI:0.00
PC:161f2     Total:8717      MisBP:0   MisRate:0.00%    MPKI:0.00
PC:111b0     Total:38      MisBP:0   MisRate:0.00%    MPKI:0.00
PC:161f0     Total:8720      MisBP:0   MisRate:0.00%    MPKI:0.00
PC:111ae     Total:38      MisBP:0   MisRate:0.00%    MPKI:0.00
PC:161ee     Total:8720      MisBP:0   MisRate:0.00%    MPKI:0.00
PC:111ac     Total:38      MisBP:0   MisRate:0.00%    MPKI:0.00
PC:161ea     Total:8705      MisBP:0   MisRate:0.00%    MPKI:0.00
PC:111a8     Total:38      MisBP:0   MisRate:0.00%    MPKI:0.00
PC:16224     Total:8736      MisBP:0   MisRate:0.00%    MPKI:0.00
PC:16238     Total:8725      MisBP:0   MisRate:0.00%    MPKI:0.00
PC:16236     Total:8726      MisBP:0   MisRate:0.00%    MPKI:0.00
PC:16232     Total:8730      MisBP:0   MisRate:0.00%    MPKI:0.00
PC:111f0     Total:23      MisBP:0   MisRate:0.00%    MPKI:0.00
PC:1622c     Total:8733      MisBP:0   MisRate:0.00%    MPKI:0.00
PC:111ea     Total:3      MisBP:0   MisRate:0.00%    MPKI:0.00
PC:1622a     Total:8734      MisBP:0   MisRate:0.00%    MPKI:0.00
PC:16228     Total:8736      MisBP:0   MisRate:0.00%    MPKI:0.00
PC:111e6     Total:3      MisBP:0   MisRate:0.00%    MPKI:0.00
PC:16226     Total:8736      MisBP:0   MisRate:0.00%    MPKI:0.00
PC:111e4     Total:3      MisBP:0   MisRate:0.00%    MPKI:0.00
PC:161e8     Total:8687      MisBP:0   MisRate:0.00%    MPKI:0.00
PC:16220     Total:8698      MisBP:0   MisRate:0.00%    MPKI:0.00
PC:1621a     Total:8686      MisBP:0   MisRate:0.00%    MPKI:0.00
PC:111d8     Total:27      MisBP:0   MisRate:0.00%    MPKI:0.00
PC:16216     Total:8689      MisBP:0   MisRate:0.00%    MPKI:0.00
PC:111d4     Total:27      MisBP:0   MisRate:0.00%    MPKI:0.00
PC:16214     Total:8689      MisBP:0   MisRate:0.00%    MPKI:0.00
PC:111d2     Total:27      MisBP:0   MisRate:0.00%    MPKI:0.00
PC:16212     Total:8689      MisBP:0   MisRate:0.00%    MPKI:0.00
PC:111d0     Total:27      MisBP:0   MisRate:0.00%    MPKI:0.00
PC:1620e     Total:8690      MisBP:0   MisRate:0.00%    MPKI:0.00
PC:1618e     Total:8713      MisBP:0   MisRate:0.00%    MPKI:0.00
PC:161aa     Total:8694      MisBP:0   MisRate:0.00%    MPKI:0.00
PC:161a8     Total:8694      MisBP:0   MisRate:0.00%    MPKI:0.00
PC:161a6     Total:8705      MisBP:0   MisRate:0.00%    MPKI:0.00
PC:161a4     Total:8709      MisBP:0   MisRate:0.00%    MPKI:0.00
PC:161a0     Total:8709      MisBP:0   MisRate:0.00%    MPKI:0.00
PC:1619e     Total:8709      MisBP:0   MisRate:0.00%    MPKI:0.00
PC:1619c     Total:8709      MisBP:0   MisRate:0.00%    MPKI:0.00
PC:1619a     Total:8709      MisBP:0   MisRate:0.00%    MPKI:0.00
PC:16196     Total:8716      MisBP:0   MisRate:0.00%    MPKI:0.00
PC:16194     Total:8716      MisBP:0   MisRate:0.00%    MPKI:0.00
PC:16192     Total:8725      MisBP:0   MisRate:0.00%    MPKI:0.00
PC:161ac     Total:8694      MisBP:0   MisRate:0.00%    MPKI:0.00
PC:1618a     Total:8713      MisBP:0   MisRate:0.00%    MPKI:0.00
PC:16188     Total:8713      MisBP:0   MisRate:0.00%    MPKI:0.00
PC:16186     Total:8712      MisBP:0   MisRate:0.00%    MPKI:0.00
PC:16184     Total:8712      MisBP:0   MisRate:0.00%    MPKI:0.00
PC:16182     Total:8699      MisBP:0   MisRate:0.00%    MPKI:0.00
PC:1617e     Total:8699      MisBP:0   MisRate:0.00%    MPKI:0.00
PC:1617a     Total:8724      MisBP:0   MisRate:0.00%    MPKI:0.00
PC:16178     Total:8737      MisBP:0   MisRate:0.00%    MPKI:0.00
PC:16174     Total:8737      MisBP:0   MisRate:0.00%    MPKI:0.00
PC:16170     Total:8737      MisBP:0   MisRate:0.00%    MPKI:0.00
PC:161ca     Total:8703      MisBP:0   MisRate:0.00%    MPKI:0.00
PC:111a6     Total:38      MisBP:0   MisRate:0.00%    MPKI:0.00
PC:161e6     Total:8693      MisBP:0   MisRate:0.00%    MPKI:0.00
PC:111a4     Total:38      MisBP:0   MisRate:0.00%    MPKI:0.00
PC:161dc     Total:8694      MisBP:0   MisRate:0.00%    MPKI:0.00
PC:161d8     Total:8688      MisBP:0   MisRate:0.00%    MPKI:0.00
PC:161d4     Total:8694      MisBP:0   MisRate:0.00%    MPKI:0.00
PC:161d2     Total:8693      MisBP:0   MisRate:0.00%    MPKI:0.00
PC:11190     Total:266      MisBP:0   MisRate:0.00%    MPKI:0.00
PC:161d0     Total:8699      MisBP:0   MisRate:0.00%    MPKI:0.00
PC:161ce     Total:8699      MisBP:0   MisRate:0.00%    MPKI:0.00
PC:161cc     Total:8700      MisBP:0   MisRate:0.00%    MPKI:0.00
PC:1623a     Total:8725      MisBP:0   MisRate:0.00%    MPKI:0.00
PC:161c8     Total:8690      MisBP:0   MisRate:0.00%    MPKI:0.00
PC:161c4     Total:8690      MisBP:0   MisRate:0.00%    MPKI:0.00
PC:161c0     Total:8690      MisBP:0   MisRate:0.00%    MPKI:0.00
PC:161be     Total:8710      MisBP:0   MisRate:0.00%    MPKI:0.00
PC:161bc     Total:8697      MisBP:0   MisRate:0.00%    MPKI:0.00
PC:161b8     Total:8697      MisBP:0   MisRate:0.00%    MPKI:0.00
PC:161b4     Total:8707      MisBP:0   MisRate:0.00%    MPKI:0.00
PC:161b2     Total:8707      MisBP:0   MisRate:0.00%    MPKI:0.00
PC:161b0     Total:8707      MisBP:0   MisRate:0.00%    MPKI:0.00
PC:161ae     Total:8694      MisBP:0   MisRate:0.00%    MPKI:0.00
PC:162bc     Total:8786      MisBP:0   MisRate:0.00%    MPKI:0.00
PC:162d6     Total:8742      MisBP:0   MisRate:0.00%    MPKI:0.00
PC:162d4     Total:8742      MisBP:0   MisRate:0.00%    MPKI:0.00
PC:162d2     Total:8734      MisBP:0   MisRate:0.00%    MPKI:0.00
PC:162ce     Total:8734      MisBP:0   MisRate:0.00%    MPKI:0.00
PC:162cc     Total:8734      MisBP:0   MisRate:0.00%    MPKI:0.00
PC:162ca     Total:8734      MisBP:0   MisRate:0.00%    MPKI:0.00
PC:162c8     Total:8722      MisBP:0   MisRate:0.00%    MPKI:0.00
PC:162c6     Total:8722      MisBP:0   MisRate:0.00%    MPKI:0.00
PC:162c4     Total:8722      MisBP:0   MisRate:0.00%    MPKI:0.00
PC:162c0     Total:8722      MisBP:0   MisRate:0.00%    MPKI:0.00
PC:162be     Total:8786      MisBP:0   MisRate:0.00%    MPKI:0.00
PC:162d8     Total:8742      MisBP:0   MisRate:0.00%    MPKI:0.00
PC:162ba     Total:8775      MisBP:0   MisRate:0.00%    MPKI:0.00
PC:162b6     Total:8775      MisBP:0   MisRate:0.00%    MPKI:0.00
PC:162b4     Total:8778      MisBP:0   MisRate:0.00%    MPKI:0.00
PC:162b2     Total:8778      MisBP:0   MisRate:0.00%    MPKI:0.00
PC:162b0     Total:8746      MisBP:0   MisRate:0.00%    MPKI:0.00
PC:162ac     Total:8748      MisBP:0   MisRate:0.00%    MPKI:0.00
PC:162aa     Total:8748      MisBP:0   MisRate:0.00%    MPKI:0.00
PC:162a8     Total:8749      MisBP:0   MisRate:0.00%    MPKI:0.00
PC:162a6     Total:8734      MisBP:0   MisRate:0.00%    MPKI:0.00
PC:162a4     Total:8734      MisBP:0   MisRate:0.00%    MPKI:0.00
PC:162f2     Total:8781      MisBP:0   MisRate:0.00%    MPKI:0.00
PC:16310     Total:8747      MisBP:0   MisRate:0.00%    MPKI:0.00
PC:1630c     Total:8747      MisBP:0   MisRate:0.00%    MPKI:0.00
PC:16308     Total:8747      MisBP:0   MisRate:0.00%    MPKI:0.00
PC:16306     Total:8747      MisBP:0   MisRate:0.00%    MPKI:0.00
PC:16304     Total:8747      MisBP:0   MisRate:0.00%    MPKI:0.00
PC:16300     Total:8748      MisBP:0   MisRate:0.00%    MPKI:0.00
PC:162fe     Total:8765      MisBP:0   MisRate:0.00%    MPKI:0.00
PC:162fc     Total:8765      MisBP:0   MisRate:0.00%    MPKI:0.00
PC:162fa     Total:8777      MisBP:0   MisRate:0.00%    MPKI:0.00
PC:162f8     Total:8781      MisBP:0   MisRate:0.00%    MPKI:0.00
PC:162f4     Total:8781      MisBP:0   MisRate:0.00%    MPKI:0.00
PC:162a2     Total:8737      MisBP:0   MisRate:0.00%    MPKI:0.00
PC:162ee     Total:8781      MisBP:0   MisRate:0.00%    MPKI:0.00
PC:162ec     Total:8782      MisBP:0   MisRate:0.00%    MPKI:0.00
PC:162ea     Total:8782      MisBP:0   MisRate:0.00%    MPKI:0.00
PC:162e8     Total:8767      MisBP:0   MisRate:0.00%    MPKI:0.00
PC:162e6     Total:8768      MisBP:0   MisRate:0.00%    MPKI:0.00
PC:162e4     Total:8762      MisBP:0   MisRate:0.00%    MPKI:0.00
PC:162e2     Total:8762      MisBP:0   MisRate:0.00%    MPKI:0.00
PC:162e0     Total:8754      MisBP:0   MisRate:0.00%    MPKI:0.00
PC:162de     Total:8754      MisBP:0   MisRate:0.00%    MPKI:0.00
PC:162da     Total:8742      MisBP:0   MisRate:0.00%    MPKI:0.00
PC:16252     Total:8754      MisBP:0   MisRate:0.00%    MPKI:0.00
PC:1626a     Total:8746      MisBP:0   MisRate:0.00%    MPKI:0.00
PC:16268     Total:8746      MisBP:0   MisRate:0.00%    MPKI:0.00
PC:16266     Total:8749      MisBP:0   MisRate:0.00%    MPKI:0.00
PC:16264     Total:8749      MisBP:0   MisRate:0.00%    MPKI:0.00
PC:16262     Total:8752      MisBP:0   MisRate:0.00%    MPKI:0.00
PC:16260     Total:8752      MisBP:0   MisRate:0.00%    MPKI:0.00
PC:1625c     Total:8752      MisBP:0   MisRate:0.00%    MPKI:0.00
PC:1625a     Total:8752      MisBP:0   MisRate:0.00%    MPKI:0.00
PC:16258     Total:8752      MisBP:0   MisRate:0.00%    MPKI:0.00
PC:16256     Total:8754      MisBP:0   MisRate:0.00%    MPKI:0.00
PC:16254     Total:8754      MisBP:0   MisRate:0.00%    MPKI:0.00
PC:1626e     Total:8746      MisBP:0   MisRate:0.00%    MPKI:0.00
PC:16250     Total:8767      MisBP:0   MisRate:0.00%    MPKI:0.00
PC:1624e     Total:8767      MisBP:0   MisRate:0.00%    MPKI:0.00
PC:1624c     Total:8767      MisBP:0   MisRate:0.00%    MPKI:0.00
PC:16248     Total:8767      MisBP:0   MisRate:0.00%    MPKI:0.00
PC:16246     Total:8767      MisBP:0   MisRate:0.00%    MPKI:0.00
PC:16244     Total:8767      MisBP:0   MisRate:0.00%    MPKI:0.00
PC:16242     Total:8735      MisBP:0   MisRate:0.00%    MPKI:0.00
PC:16240     Total:8735      MisBP:0   MisRate:0.00%    MPKI:0.00
PC:1623e     Total:8744      MisBP:0   MisRate:0.00%    MPKI:0.00
PC:1623c     Total:8744      MisBP:0   MisRate:0.00%    MPKI:0.00
PC:1628a     Total:8691      MisBP:0   MisRate:0.00%    MPKI:0.00
PC:162a0     Total:8737      MisBP:0   MisRate:0.00%    MPKI:0.00
PC:1629e     Total:8704      MisBP:0   MisRate:0.00%    MPKI:0.00
PC:1629c     Total:8704      MisBP:0   MisRate:0.00%    MPKI:0.00
PC:1629a     Total:8702      MisBP:0   MisRate:0.00%    MPKI:0.00
PC:16296     Total:8702      MisBP:0   MisRate:0.00%    MPKI:0.00
PC:16294     Total:8702      MisBP:0   MisRate:0.00%    MPKI:0.00
PC:16292     Total:8702      MisBP:0   MisRate:0.00%    MPKI:0.00
PC:16290     Total:8690      MisBP:0   MisRate:0.00%    MPKI:0.00
PC:1628e     Total:8691      MisBP:0   MisRate:0.00%    MPKI:0.00
PC:1628c     Total:8691      MisBP:0   MisRate:0.00%    MPKI:0.00
PC:1687a     Total:54      MisBP:0   MisRate:0.00%    MPKI:0.00
PC:16288     Total:8691      MisBP:0   MisRate:0.00%    MPKI:0.00
PC:16284     Total:8691      MisBP:0   MisRate:0.00%    MPKI:0.00
PC:16282     Total:8691      MisBP:0   MisRate:0.00%    MPKI:0.00
PC:16280     Total:8691      MisBP:0   MisRate:0.00%    MPKI:0.00
PC:1627e     Total:8733      MisBP:0   MisRate:0.00%    MPKI:0.00
PC:1627c     Total:8733      MisBP:0   MisRate:0.00%    MPKI:0.00
PC:1627a     Total:8733      MisBP:0   MisRate:0.00%    MPKI:0.00
PC:16276     Total:8746      MisBP:0   MisRate:0.00%    MPKI:0.00
PC:16274     Total:8746      MisBP:0   MisRate:0.00%    MPKI:0.00
PC:16270     Total:8746      MisBP:0   MisRate:0.00%    MPKI:0.00
PC:14dd0     Total:6879      MisBP:0   MisRate:0.00%    MPKI:0.00
PC:14df0     Total:6875      MisBP:0   MisRate:0.00%    MPKI:0.00
PC:14dee     Total:6877      MisBP:0   MisRate:0.00%    MPKI:0.00
PC:14dea     Total:6878      MisBP:0   MisRate:0.00%    MPKI:0.00
PC:14de6     Total:6841      MisBP:0   MisRate:0.00%    MPKI:0.00
PC:14de4     Total:6841      MisBP:0   MisRate:0.00%    MPKI:0.00
PC:14de0     Total:6844      MisBP:0   MisRate:0.00%    MPKI:0.00
PC:14dde     Total:6844      MisBP:0   MisRate:0.00%    MPKI:0.00
PC:14ddc     Total:6849      MisBP:0   MisRate:0.00%    MPKI:0.00
PC:14dd8     Total:6871      MisBP:0   MisRate:0.00%    MPKI:0.00
PC:14dd6     Total:6872      MisBP:0   MisRate:0.00%    MPKI:0.00
PC:14dd2     Total:6872      MisBP:0   MisRate:0.00%    MPKI:0.00
PC:14df4     Total:6874      MisBP:0   MisRate:0.00%    MPKI:0.00
PC:14dce     Total:6880      MisBP:0   MisRate:0.00%    MPKI:0.00
PC:14dca     Total:6894      MisBP:0   MisRate:0.00%    MPKI:0.00
PC:14dc8     Total:6894      MisBP:0   MisRate:0.00%    MPKI:0.00
PC:14dc4     Total:6895      MisBP:0   MisRate:0.00%    MPKI:0.00
PC:14dc2     Total:6898      MisBP:0   MisRate:0.00%    MPKI:0.00
PC:14dc0     Total:6898      MisBP:0   MisRate:0.00%    MPKI:0.00
PC:14dbc     Total:6953      MisBP:0   MisRate:0.00%    MPKI:0.00
PC:14dba     Total:6953      MisBP:0   MisRate:0.00%    MPKI:0.00
PC:14db6     Total:6953      MisBP:0   MisRate:0.00%    MPKI:0.00
PC:14db4     Total:6953      MisBP:0   MisRate:0.00%    MPKI:0.00
PC:12652     Total:1      MisBP:0   MisRate:0.00%    MPKI:0.00
PC:14e26     Total:6873      MisBP:0   MisRate:0.00%    MPKI:0.00
PC:12666     Total:1      MisBP:0   MisRate:0.00%    MPKI:0.00
PC:14e24     Total:6876      MisBP:0   MisRate:0.00%    MPKI:0.00
PC:12662     Total:1      MisBP:0   MisRate:0.00%    MPKI:0.00
PC:14e20     Total:6876      MisBP:0   MisRate:0.00%    MPKI:0.00
PC:14e1e     Total:6879      MisBP:0   MisRate:0.00%    MPKI:0.00
PC:1265c     Total:1      MisBP:0   MisRate:0.00%    MPKI:0.00
PC:14e1a     Total:6880      MisBP:0   MisRate:0.00%    MPKI:0.00
PC:14e16     Total:6792      MisBP:0   MisRate:0.00%    MPKI:0.00
PC:12656     Total:1      MisBP:0   MisRate:0.00%    MPKI:0.00
PC:14e14     Total:6793      MisBP:0   MisRate:0.00%    MPKI:0.00
PC:14db2     Total:6956      MisBP:0   MisRate:0.00%    MPKI:0.00
PC:14e10     Total:6793      MisBP:0   MisRate:0.00%    MPKI:0.00
PC:14e0e     Total:6796      MisBP:0   MisRate:0.00%    MPKI:0.00
PC:14e0a     Total:6796      MisBP:0   MisRate:0.00%    MPKI:0.00
PC:12648     Total:1      MisBP:0   MisRate:0.00%    MPKI:0.00
PC:14e06     Total:6654      MisBP:0   MisRate:0.00%    MPKI:0.00
PC:14e04     Total:6654      MisBP:0   MisRate:0.00%    MPKI:0.00
PC:14e00     Total:6654      MisBP:0   MisRate:0.00%    MPKI:0.00
PC:14dfe     Total:6896      MisBP:0   MisRate:0.00%    MPKI:0.00
PC:14dfa     Total:6900      MisBP:0   MisRate:0.00%    MPKI:0.00
PC:14df6     Total:6874      MisBP:0   MisRate:0.00%    MPKI:0.00
PC:14d70     Total:6889      MisBP:0   MisRate:0.00%    MPKI:0.00
PC:14d84     Total:6636      MisBP:0   MisRate:0.00%    MPKI:0.00
PC:125c4     Total:1      MisBP:0   MisRate:0.00%    MPKI:0.00
PC:14d82     Total:6636      MisBP:0   MisRate:0.00%    MPKI:0.00
PC:125c0     Total:1      MisBP:0   MisRate:0.00%    MPKI:0.00
PC:14d7e     Total:6636      MisBP:0   MisRate:0.00%    MPKI:0.00
PC:14d7c     Total:6876      MisBP:0   MisRate:0.00%    MPKI:0.00
PC:125bc     Total:4      MisBP:0   MisRate:0.00%    MPKI:0.00
PC:14d7a     Total:6878      MisBP:0   MisRate:0.00%    MPKI:0.00
PC:14d76     Total:6889      MisBP:0   MisRate:0.00%    MPKI:0.00
PC:125b6     Total:4      MisBP:0   MisRate:0.00%    MPKI:0.00
PC:14d74     Total:6889      MisBP:0   MisRate:0.00%    MPKI:0.00
PC:14d88     Total:6681      MisBP:0   MisRate:0.00%    MPKI:0.00
PC:14d6e     Total:6890      MisBP:0   MisRate:0.00%    MPKI:0.00
PC:125ae     Total:1      MisBP:0   MisRate:0.00%    MPKI:0.00
PC:14d6c     Total:6894      MisBP:0   MisRate:0.00%    MPKI:0.00
PC:125aa     Total:1      MisBP:0   MisRate:0.00%    MPKI:0.00
PC:14d68     Total:6809      MisBP:0   MisRate:0.00%    MPKI:0.00
PC:125a8     Total:1      MisBP:0   MisRate:0.00%    MPKI:0.00
PC:14d66     Total:6809      MisBP:0   MisRate:0.00%    MPKI:0.00
PC:125a4     Total:1      MisBP:0   MisRate:0.00%    MPKI:0.00
PC:14d62     Total:6811      MisBP:0   MisRate:0.00%    MPKI:0.00
PC:125a2     Total:1      MisBP:0   MisRate:0.00%    MPKI:0.00
PC:125da     Total:2      MisBP:0   MisRate:0.00%    MPKI:0.00
PC:14dae     Total:6934      MisBP:0   MisRate:0.00%    MPKI:0.00
PC:14dac     Total:6935      MisBP:0   MisRate:0.00%    MPKI:0.00
PC:14da8     Total:6938      MisBP:0   MisRate:0.00%    MPKI:0.00
PC:14da6     Total:6939      MisBP:0   MisRate:0.00%    MPKI:0.00
PC:14da4     Total:6942      MisBP:0   MisRate:0.00%    MPKI:0.00
PC:125e2     Total:2      MisBP:0   MisRate:0.00%    MPKI:0.00
PC:14da0     Total:6726      MisBP:0   MisRate:0.00%    MPKI:0.00
PC:125e0     Total:2      MisBP:0   MisRate:0.00%    MPKI:0.00
PC:14d9e     Total:6726      MisBP:0   MisRate:0.00%    MPKI:0.00
PC:125dc     Total:2      MisBP:0   MisRate:0.00%    MPKI:0.00
PC:14d9a     Total:6727      MisBP:0   MisRate:0.00%    MPKI:0.00
PC:14e2a     Total:6919      MisBP:0   MisRate:0.00%    MPKI:0.00
PC:14d98     Total:6728      MisBP:0   MisRate:0.00%    MPKI:0.00
PC:14d96     Total:6731      MisBP:0   MisRate:0.00%    MPKI:0.00
PC:125d4     Total:2      MisBP:0   MisRate:0.00%    MPKI:0.00
PC:14d92     Total:6675      MisBP:0   MisRate:0.00%    MPKI:0.00
PC:125d2     Total:2      MisBP:0   MisRate:0.00%    MPKI:0.00
PC:14d90     Total:6675      MisBP:0   MisRate:0.00%    MPKI:0.00
PC:125ce     Total:2      MisBP:0   MisRate:0.00%    MPKI:0.00
PC:14d8c     Total:6675      MisBP:0   MisRate:0.00%    MPKI:0.00
PC:125cc     Total:2      MisBP:0   MisRate:0.00%    MPKI:0.00
PC:14d8a     Total:6675      MisBP:0   MisRate:0.00%    MPKI:0.00
PC:14ed6     Total:6652      MisBP:0   MisRate:0.00%    MPKI:0.00
PC:14eee     Total:6914      MisBP:0   MisRate:0.00%    MPKI:0.00
PC:1272c     Total:144      MisBP:0   MisRate:0.00%    MPKI:0.00
PC:14eea     Total:6915      MisBP:0   MisRate:0.00%    MPKI:0.00
PC:12728     Total:144      MisBP:0   MisRate:0.00%    MPKI:0.00
PC:14ee6     Total:6702      MisBP:0   MisRate:0.00%    MPKI:0.00
PC:14ee4     Total:6702      MisBP:0   MisRate:0.00%    MPKI:0.00
PC:12722     Total:169      MisBP:0   MisRate:0.00%    MPKI:0.00
PC:14ee0     Total:6703      MisBP:0   MisRate:0.00%    MPKI:0.00
PC:12720     Total:507      MisBP:0   MisRate:0.00%    MPKI:0.00
PC:14ede     Total:6710      MisBP:0   MisRate:0.00%    MPKI:0.00
PC:14eda     Total:6710      MisBP:0   MisRate:0.00%    MPKI:0.00
PC:12730     Total:144      MisBP:0   MisRate:0.00%    MPKI:0.00
PC:14ed4     Total:6652      MisBP:0   MisRate:0.00%    MPKI:0.00
PC:14ed0     Total:6653      MisBP:0   MisRate:0.00%    MPKI:0.00
PC:14ece     Total:6658      MisBP:0   MisRate:0.00%    MPKI:0.00
PC:14eca     Total:6660      MisBP:0   MisRate:0.00%    MPKI:0.00
PC:14ec6     Total:6623      MisBP:0   MisRate:0.00%    MPKI:0.00
PC:14ec4     Total:6623      MisBP:0   MisRate:0.00%    MPKI:0.00
PC:14ec0     Total:6624      MisBP:0   MisRate:0.00%    MPKI:0.00
PC:14ebe     Total:6914      MisBP:0   MisRate:0.00%    MPKI:0.00
PC:14eba     Total:6917      MisBP:0   MisRate:0.00%    MPKI:0.00
PC:14eb6     Total:6895      MisBP:0   MisRate:0.00%    MPKI:0.00
PC:14f0a     Total:6638      MisBP:0   MisRate:0.00%    MPKI:0.00
PC:14f34     Total:2      MisBP:0   MisRate:0.00%    MPKI:0.00
PC:14f30     Total:2      MisBP:0   MisRate:0.00%    MPKI:0.00
PC:14f2c     Total:4      MisBP:0   MisRate:0.00%    MPKI:0.00
PC:14f28     Total:4      MisBP:0   MisRate:0.00%    MPKI:0.00
PC:14f24     Total:10      MisBP:0   MisRate:0.00%    MPKI:0.00
PC:14f20     Total:10      MisBP:0   MisRate:0.00%    MPKI:0.00
PC:14f1c     Total:10      MisBP:0   MisRate:0.00%    MPKI:0.00
PC:14f1a     Total:10      MisBP:0   MisRate:0.00%    MPKI:0.00
PC:14f14     Total:6636      MisBP:0   MisRate:0.00%    MPKI:0.00
PC:14f10     Total:6636      MisBP:0   MisRate:0.00%    MPKI:0.00
PC:14f0e     Total:6637      MisBP:0   MisRate:0.00%    MPKI:0.00
PC:14eb4     Total:6895      MisBP:0   MisRate:0.00%    MPKI:0.00
PC:14f06     Total:6635      MisBP:0   MisRate:0.00%    MPKI:0.00
PC:14f04     Total:6636      MisBP:0   MisRate:0.00%    MPKI:0.00
PC:14f00     Total:6637      MisBP:0   MisRate:0.00%    MPKI:0.00
PC:14efe     Total:6947      MisBP:0   MisRate:0.00%    MPKI:0.00
PC:14efa     Total:6953      MisBP:0   MisRate:0.00%    MPKI:0.00
PC:12738     Total:1      MisBP:0   MisRate:0.00%    MPKI:0.00
PC:14ef6     Total:6912      MisBP:0   MisRate:0.00%    MPKI:0.00
PC:12736     Total:426      MisBP:0   MisRate:0.00%    MPKI:0.00
PC:14ef4     Total:6913      MisBP:0   MisRate:0.00%    MPKI:0.00
PC:14ef0     Total:6914      MisBP:0   MisRate:0.00%    MPKI:0.00
PC:14e44     Total:6631      MisBP:0   MisRate:0.00%    MPKI:0.00
PC:14e66     Total:6760      MisBP:0   MisRate:0.00%    MPKI:0.00
PC:14e64     Total:6760      MisBP:0   MisRate:0.00%    MPKI:0.00
PC:14e60     Total:6761      MisBP:0   MisRate:0.00%    MPKI:0.00
PC:14e5e     Total:6766      MisBP:0   MisRate:0.00%    MPKI:0.00
PC:14e5a     Total:6766      MisBP:0   MisRate:0.00%    MPKI:0.00
PC:14e56     Total:6647      MisBP:0   MisRate:0.00%    MPKI:0.00
PC:14e54     Total:6647      MisBP:0   MisRate:0.00%    MPKI:0.00
PC:14e50     Total:6656      MisBP:0   MisRate:0.00%    MPKI:0.00
PC:14e4e     Total:6657      MisBP:0   MisRate:0.00%    MPKI:0.00
PC:14e4a     Total:6658      MisBP:0   MisRate:0.00%    MPKI:0.00
PC:14e46     Total:6631      MisBP:0   MisRate:0.00%    MPKI:0.00
PC:14e6a     Total:6919      MisBP:0   MisRate:0.00%    MPKI:0.00
PC:14e40     Total:6631      MisBP:0   MisRate:0.00%    MPKI:0.00
PC:14e3e     Total:6879      MisBP:0   MisRate:0.00%    MPKI:0.00
PC:14e3a     Total:6881      MisBP:0   MisRate:0.00%    MPKI:0.00
PC:14e36     Total:6911      MisBP:0   MisRate:0.00%    MPKI:0.00
PC:12676     Total:1      MisBP:0   MisRate:0.00%    MPKI:0.00
PC:14e34     Total:6911      MisBP:0   MisRate:0.00%    MPKI:0.00
PC:12672     Total:1      MisBP:0   MisRate:0.00%    MPKI:0.00
PC:14e30     Total:6912      MisBP:0   MisRate:0.00%    MPKI:0.00
PC:12670     Total:1      MisBP:0   MisRate:0.00%    MPKI:0.00
PC:14e2e     Total:6918      MisBP:0   MisRate:0.00%    MPKI:0.00
PC:14e8e     Total:6649      MisBP:0   MisRate:0.00%    MPKI:0.00
PC:14eb0     Total:6897      MisBP:0   MisRate:0.00%    MPKI:0.00
PC:14eae     Total:6898      MisBP:0   MisRate:0.00%    MPKI:0.00
PC:14eaa     Total:6901      MisBP:0   MisRate:0.00%    MPKI:0.00
PC:14ea6     Total:6726      MisBP:0   MisRate:0.00%    MPKI:0.00
PC:14ea4     Total:6726      MisBP:0   MisRate:0.00%    MPKI:0.00
PC:14ea0     Total:6726      MisBP:0   MisRate:0.00%    MPKI:0.00
PC:14e9e     Total:6736      MisBP:0   MisRate:0.00%    MPKI:0.00
PC:14e9a     Total:6744      MisBP:0   MisRate:0.00%    MPKI:0.00
PC:14e96     Total:6645      MisBP:0   MisRate:0.00%    MPKI:0.00
PC:14e94     Total:6645      MisBP:0   MisRate:0.00%    MPKI:0.00
PC:14e90     Total:6646      MisBP:0   MisRate:0.00%    MPKI:0.00
PC:14d60     Total:6811      MisBP:0   MisRate:0.00%    MPKI:0.00
PC:14e8a     Total:6650      MisBP:0   MisRate:0.00%    MPKI:0.00
PC:14e86     Total:6692      MisBP:0   MisRate:0.00%    MPKI:0.00
PC:14e84     Total:6693      MisBP:0   MisRate:0.00%    MPKI:0.00
PC:14e80     Total:6694      MisBP:0   MisRate:0.00%    MPKI:0.00
PC:14e7e     Total:6928      MisBP:0   MisRate:0.00%    MPKI:0.00
PC:14e7a     Total:6930      MisBP:0   MisRate:0.00%    MPKI:0.00
PC:14e76     Total:6913      MisBP:0   MisRate:0.00%    MPKI:0.00
PC:14e74     Total:6913      MisBP:0   MisRate:0.00%    MPKI:0.00
PC:14e70     Total:6917      MisBP:0   MisRate:0.00%    MPKI:0.00
PC:14e6e     Total:6919      MisBP:0   MisRate:0.00%    MPKI:0.00
PC:14c50     Total:5510      MisBP:0   MisRate:0.00%    MPKI:0.00
PC:14c64     Total:6338      MisBP:0   MisRate:0.00%    MPKI:0.00
PC:14c62     Total:6338      MisBP:0   MisRate:0.00%    MPKI:0.00
PC:14c5e     Total:5960      MisBP:0   MisRate:0.00%    MPKI:0.00
PC:14c5c     Total:5960      MisBP:0   MisRate:0.00%    MPKI:0.00
PC:1249a     Total:21740      MisBP:0   MisRate:0.00%    MPKI:0.00
PC:14c58     Total:5960      MisBP:0   MisRate:0.00%    MPKI:0.00
PC:12498     Total:21786      MisBP:0   MisRate:0.00%    MPKI:0.00
PC:14c56     Total:5960      MisBP:0   MisRate:0.00%    MPKI:0.00
PC:12496     Total:21791      MisBP:0   MisRate:0.00%    MPKI:0.00
PC:14c54     Total:5960      MisBP:0   MisRate:0.00%    MPKI:0.00
PC:12492     Total:21795      MisBP:0   MisRate:0.00%    MPKI:0.00
PC:14c66     Total:6338      MisBP:0   MisRate:0.00%    MPKI:0.00
PC:12490     Total:21796      MisBP:0   MisRate:0.00%    MPKI:0.00
PC:14c4e     Total:5510      MisBP:0   MisRate:0.00%    MPKI:0.00
PC:1248c     Total:21890      MisBP:0   MisRate:0.00%    MPKI:0.00
PC:14c4a     Total:5510      MisBP:0   MisRate:0.00%    MPKI:0.00
PC:1248a     Total:21891      MisBP:0   MisRate:0.00%    MPKI:0.00
PC:14c48     Total:5510      MisBP:0   MisRate:0.00%    MPKI:0.00
PC:12488     Total:12733      MisBP:0   MisRate:0.00%    MPKI:0.00
PC:14c46     Total:5510      MisBP:0   MisRate:0.00%    MPKI:0.00
PC:12484     Total:12652      MisBP:0   MisRate:0.00%    MPKI:0.00
PC:14c42     Total:4599      MisBP:0   MisRate:0.00%    MPKI:0.00
PC:14c86     Total:6741      MisBP:0   MisRate:0.00%    MPKI:0.00
PC:14ca4     Total:6780      MisBP:0   MisRate:0.00%    MPKI:0.00
PC:14ca2     Total:6780      MisBP:0   MisRate:0.00%    MPKI:0.00
PC:14c9e     Total:6780      MisBP:0   MisRate:0.00%    MPKI:0.00
PC:14c9c     Total:6781      MisBP:0   MisRate:0.00%    MPKI:0.00
PC:14c9a     Total:6783      MisBP:0   MisRate:0.00%    MPKI:0.00
PC:14c96     Total:6798      MisBP:0   MisRate:0.00%    MPKI:0.00
PC:14c94     Total:6798      MisBP:0   MisRate:0.00%    MPKI:0.00
PC:14c90     Total:6802      MisBP:0   MisRate:0.00%    MPKI:0.00
PC:14c8e     Total:6802      MisBP:0   MisRate:0.00%    MPKI:0.00
PC:14c8c     Total:6804      MisBP:0   MisRate:0.00%    MPKI:0.00
PC:14c88     Total:6741      MisBP:0   MisRate:0.00%    MPKI:0.00
PC:12482     Total:12652      MisBP:0   MisRate:0.00%    MPKI:0.00
PC:14c82     Total:6741      MisBP:0   MisRate:0.00%    MPKI:0.00
PC:14c80     Total:6741      MisBP:0   MisRate:0.00%    MPKI:0.00
PC:14c7e     Total:6987      MisBP:0   MisRate:0.00%    MPKI:0.00
PC:14c7a     Total:6854      MisBP:0   MisRate:0.00%    MPKI:0.00
PC:14c78     Total:6854      MisBP:0   MisRate:0.00%    MPKI:0.00
PC:14c74     Total:6854      MisBP:0   MisRate:0.00%    MPKI:0.00
PC:14c72     Total:6854      MisBP:0   MisRate:0.00%    MPKI:0.00
PC:14c70     Total:6855      MisBP:0   MisRate:0.00%    MPKI:0.00
PC:14c6c     Total:6336      MisBP:0   MisRate:0.00%    MPKI:0.00
PC:14c6a     Total:6337      MisBP:0   MisRate:0.00%    MPKI:0.00
PC:14c06     Total:5295      MisBP:0   MisRate:0.00%    MPKI:0.00
PC:12458     Total:19137      MisBP:0   MisRate:0.00%    MPKI:0.00
PC:14c16     Total:5154      MisBP:0   MisRate:0.00%    MPKI:0.00
PC:12456     Total:19138      MisBP:0   MisRate:0.00%    MPKI:0.00
PC:14c14     Total:5154      MisBP:0   MisRate:0.00%    MPKI:0.00
PC:14c12     Total:5288      MisBP:0   MisRate:0.00%    MPKI:0.00
PC:14c10     Total:5292      MisBP:0   MisRate:0.00%    MPKI:0.00
PC:14c0c     Total:5293      MisBP:0   MisRate:0.00%    MPKI:0.00
PC:1244c     Total:380143      MisBP:0   MisRate:0.00%    MPKI:0.00
PC:14c0a     Total:5295      MisBP:0   MisRate:0.00%    MPKI:0.00
PC:14c08     Total:5295      MisBP:0   MisRate:0.00%    MPKI:0.00
PC:12448     Total:380431      MisBP:0   MisRate:0.00%    MPKI:0.00
PC:14c1a     Total:5152      MisBP:0   MisRate:0.00%    MPKI:0.00
PC:12444     Total:190256      MisBP:0   MisRate:0.00%    MPKI:0.00
PC:14c02     Total:5295      MisBP:0   MisRate:0.00%    MPKI:0.00
PC:12440     Total:380764      MisBP:0   MisRate:0.00%    MPKI:0.00
PC:1243e     Total:13045      MisBP:0   MisRate:0.00%    MPKI:0.00
PC:14bfc     Total:5585      MisBP:0   MisRate:0.00%    MPKI:0.00
PC:1243c     Total:13047      MisBP:0   MisRate:0.00%    MPKI:0.00
PC:14bfa     Total:5585      MisBP:0   MisRate:0.00%    MPKI:0.00
PC:1687c     Total:54      MisBP:0   MisRate:0.00%    MPKI:0.00
PC:140bc     Total:140      MisBP:0   MisRate:0.00%    MPKI:0.00
PC:190fe     Total:3      MisBP:0   MisRate:0.00%    MPKI:0.00
PC:1246e     Total:18855      MisBP:0   MisRate:0.00%    MPKI:0.00
PC:14c40     Total:4599      MisBP:0   MisRate:0.00%    MPKI:0.00
PC:1247e     Total:12846      MisBP:0   MisRate:0.00%    MPKI:0.00
PC:14c3c     Total:4704      MisBP:0   MisRate:0.00%    MPKI:0.00
PC:1247c     Total:12907      MisBP:0   MisRate:0.00%    MPKI:0.00
PC:14c3a     Total:4704      MisBP:0   MisRate:0.00%    MPKI:0.00
PC:1247a     Total:12908      MisBP:0   MisRate:0.00%    MPKI:0.00
PC:14c38     Total:4704      MisBP:0   MisRate:0.00%    MPKI:0.00
PC:14c34     Total:4930      MisBP:0   MisRate:0.00%    MPKI:0.00
PC:14c30     Total:4932      MisBP:0   MisRate:0.00%    MPKI:0.00
PC:12470     Total:18854      MisBP:0   MisRate:0.00%    MPKI:0.00
PC:14c2e     Total:4934      MisBP:0   MisRate:0.00%    MPKI:0.00
PC:14ca8     Total:6959      MisBP:0   MisRate:0.00%    MPKI:0.00
PC:14c2c     Total:4934      MisBP:0   MisRate:0.00%    MPKI:0.00
PC:1246c     Total:18856      MisBP:0   MisRate:0.00%    MPKI:0.00
PC:14c2a     Total:5143      MisBP:0   MisRate:0.00%    MPKI:0.00
PC:1246a     Total:18927      MisBP:0   MisRate:0.00%    MPKI:0.00
PC:14c28     Total:5148      MisBP:0   MisRate:0.00%    MPKI:0.00
PC:14c24     Total:5150      MisBP:0   MisRate:0.00%    MPKI:0.00
PC:14c20     Total:5151      MisBP:0   MisRate:0.00%    MPKI:0.00
PC:12460     Total:19133      MisBP:0   MisRate:0.00%    MPKI:0.00
PC:14c1e     Total:5151      MisBP:0   MisRate:0.00%    MPKI:0.00
PC:1245c     Total:19134      MisBP:0   MisRate:0.00%    MPKI:0.00
PC:12564     Total:1      MisBP:0   MisRate:0.00%    MPKI:0.00
PC:14d3c     Total:6894      MisBP:0   MisRate:0.00%    MPKI:0.00
PC:14d38     Total:6894      MisBP:0   MisRate:0.00%    MPKI:0.00
PC:12578     Total:1      MisBP:0   MisRate:0.00%    MPKI:0.00
PC:14d36     Total:6895      MisBP:0   MisRate:0.00%    MPKI:0.00
PC:14d34     Total:6899      MisBP:0   MisRate:0.00%    MPKI:0.00
PC:14d30     Total:6886      MisBP:0   MisRate:0.00%    MPKI:0.00
PC:14d2e     Total:6886      MisBP:0   MisRate:0.00%    MPKI:0.00
PC:14d2a     Total:6888      MisBP:0   MisRate:0.00%    MPKI:0.00
PC:1256a     Total:1      MisBP:0   MisRate:0.00%    MPKI:0.00
PC:14d28     Total:6889      MisBP:0   MisRate:0.00%    MPKI:0.00
PC:14d26     Total:6895      MisBP:0   MisRate:0.00%    MPKI:0.00
PC:1257e     Total:1      MisBP:0   MisRate:0.00%    MPKI:0.00
PC:14d22     Total:6770      MisBP:0   MisRate:0.00%    MPKI:0.00
PC:12562     Total:1      MisBP:0   MisRate:0.00%    MPKI:0.00
PC:14d20     Total:6770      MisBP:0   MisRate:0.00%    MPKI:0.00
PC:14d1c     Total:6771      MisBP:0   MisRate:0.00%    MPKI:0.00
PC:1255c     Total:1      MisBP:0   MisRate:0.00%    MPKI:0.00
PC:14d1a     Total:6771      MisBP:0   MisRate:0.00%    MPKI:0.00
PC:1255a     Total:1      MisBP:0   MisRate:0.00%    MPKI:0.00
PC:14d18     Total:6778      MisBP:0   MisRate:0.00%    MPKI:0.00
PC:12556     Total:1      MisBP:0   MisRate:0.00%    MPKI:0.00
PC:14d14     Total:6691      MisBP:0   MisRate:0.00%    MPKI:0.00
PC:14d4c     Total:6555      MisBP:0   MisRate:0.00%    MPKI:0.00
PC:125a0     Total:1      MisBP:0   MisRate:0.00%    MPKI:0.00
PC:14d5e     Total:6812      MisBP:0   MisRate:0.00%    MPKI:0.00
PC:1259c     Total:1      MisBP:0   MisRate:0.00%    MPKI:0.00
PC:14d5a     Total:6613      MisBP:0   MisRate:0.00%    MPKI:0.00
PC:1259a     Total:1      MisBP:0   MisRate:0.00%    MPKI:0.00
PC:14d58     Total:6615      MisBP:0   MisRate:0.00%    MPKI:0.00
PC:14d54     Total:6615      MisBP:0   MisRate:0.00%    MPKI:0.00
PC:12594     Total:1      MisBP:0   MisRate:0.00%    MPKI:0.00
PC:14d52     Total:6621      MisBP:0   MisRate:0.00%    MPKI:0.00
PC:12592     Total:1      MisBP:0   MisRate:0.00%    MPKI:0.00
PC:14d50     Total:6622      MisBP:0   MisRate:0.00%    MPKI:0.00
PC:12554     Total:1      MisBP:0   MisRate:0.00%    MPKI:0.00
PC:1258c     Total:1      MisBP:0   MisRate:0.00%    MPKI:0.00
PC:14d4a     Total:6555      MisBP:0   MisRate:0.00%    MPKI:0.00
PC:12588     Total:1      MisBP:0   MisRate:0.00%    MPKI:0.00
PC:14d46     Total:6556      MisBP:0   MisRate:0.00%    MPKI:0.00
PC:12586     Total:1      MisBP:0   MisRate:0.00%    MPKI:0.00
PC:14d44     Total:6560      MisBP:0   MisRate:0.00%    MPKI:0.00
PC:12584     Total:1      MisBP:0   MisRate:0.00%    MPKI:0.00
PC:14d42     Total:6560      MisBP:0   MisRate:0.00%    MPKI:0.00
PC:12580     Total:1      MisBP:0   MisRate:0.00%    MPKI:0.00
PC:14d3e     Total:6620      MisBP:0   MisRate:0.00%    MPKI:0.00
PC:14cc6     Total:6600      MisBP:0   MisRate:0.00%    MPKI:0.00
PC:14ce4     Total:6970      MisBP:0   MisRate:0.00%    MPKI:0.00
PC:14ce2     Total:6970      MisBP:0   MisRate:0.00%    MPKI:0.00
PC:14ce0     Total:6970      MisBP:0   MisRate:0.00%    MPKI:0.00
PC:14cdc     Total:6803      MisBP:0   MisRate:0.00%    MPKI:0.00
PC:14cda     Total:6803      MisBP:0   MisRate:0.00%    MPKI:0.00
PC:14cd6     Total:6803      MisBP:0   MisRate:0.00%    MPKI:0.00
PC:14cd4     Total:6804      MisBP:0   MisRate:0.00%    MPKI:0.00
PC:14cd2     Total:6804      MisBP:0   MisRate:0.00%    MPKI:0.00
PC:14cce     Total:6599      MisBP:0   MisRate:0.00%    MPKI:0.00
PC:14ccc     Total:6600      MisBP:0   MisRate:0.00%    MPKI:0.00
PC:14cc8     Total:6600      MisBP:0   MisRate:0.00%    MPKI:0.00
PC:14ce8     Total:6970      MisBP:0   MisRate:0.00%    MPKI:0.00
PC:14cc4     Total:6601      MisBP:0   MisRate:0.00%    MPKI:0.00
PC:14cc0     Total:6635      MisBP:0   MisRate:0.00%    MPKI:0.00
PC:14cbe     Total:6963      MisBP:0   MisRate:0.00%    MPKI:0.00
PC:14cba     Total:6963      MisBP:0   MisRate:0.00%    MPKI:0.00
PC:14cb8     Total:6963      MisBP:0   MisRate:0.00%    MPKI:0.00
PC:14cb6     Total:6964      MisBP:0   MisRate:0.00%    MPKI:0.00
PC:14cb2     Total:6955      MisBP:0   MisRate:0.00%    MPKI:0.00
PC:14cb0     Total:6957      MisBP:0   MisRate:0.00%    MPKI:0.00
PC:14cac     Total:6957      MisBP:0   MisRate:0.00%    MPKI:0.00
PC:14caa     Total:6959      MisBP:0   MisRate:0.00%    MPKI:0.00
PC:14d00     Total:6533      MisBP:0   MisRate:0.00%    MPKI:0.00
PC:14d12     Total:6692      MisBP:0   MisRate:0.00%    MPKI:0.00
PC:12550     Total:1      MisBP:0   MisRate:0.00%    MPKI:0.00
PC:14d0e     Total:6692      MisBP:0   MisRate:0.00%    MPKI:0.00
PC:1254e     Total:1      MisBP:0   MisRate:0.00%    MPKI:0.00
PC:14d0c     Total:6695      MisBP:0   MisRate:0.00%    MPKI:0.00
PC:14d0a     Total:6695      MisBP:0   MisRate:0.00%    MPKI:0.00
PC:12548     Total:1      MisBP:0   MisRate:0.00%    MPKI:0.00
PC:14d06     Total:6532      MisBP:0   MisRate:0.00%    MPKI:0.00
PC:14d04     Total:6532      MisBP:0   MisRate:0.00%    MPKI:0.00
PC:12542     Total:1      MisBP:0   MisRate:0.00%    MPKI:0.00
PC:1616c     Total:8737      MisBP:0   MisRate:0.00%    MPKI:0.00
PC:12540     Total:425      MisBP:0   MisRate:0.00%    MPKI:0.00
PC:14cfe     Total:6793      MisBP:0   MisRate:0.00%    MPKI:0.00
PC:1253e     Total:429      MisBP:0   MisRate:0.00%    MPKI:0.00
PC:14cfc     Total:6795      MisBP:0   MisRate:0.00%    MPKI:0.00
PC:14cf8     Total:6846      MisBP:0   MisRate:0.00%    MPKI:0.00
PC:14cf6     Total:6846      MisBP:0   MisRate:0.00%    MPKI:0.00
PC:14cf2     Total:6846      MisBP:0   MisRate:0.00%    MPKI:0.00
PC:14cf0     Total:6846      MisBP:0   MisRate:0.00%    MPKI:0.00
PC:14cee     Total:6849      MisBP:0   MisRate:0.00%    MPKI:0.00
PC:14cea     Total:6970      MisBP:0   MisRate:0.00%    MPKI:0.00
PC:16358     Total:8746      MisBP:0   MisRate:0.00%    MPKI:0.00
PC:15eee     Total:8768      MisBP:0   MisRate:0.00%    MPKI:0.00
PC:10eac     Total:141      MisBP:0   MisRate:0.00%    MPKI:0.00
PC:15bb2     Total:8840      MisBP:0   MisRate:0.00%    MPKI:0.00
PC:1635c     Total:8746      MisBP:0   MisRate:0.00%    MPKI:0.00
PC:15ab2     Total:8738      MisBP:0   MisRate:0.00%    MPKI:0.00
PC:10f70     Total:845      MisBP:0   MisRate:0.00%    MPKI:0.00
PC:15fb2     Total:8729      MisBP:0   MisRate:0.00%    MPKI:0.00
PC:15bb0     Total:8842      MisBP:0   MisRate:0.00%    MPKI:0.00
PC:15cb0     Total:8714      MisBP:0   MisRate:0.00%    MPKI:0.00
PC:12288     Total:85135      MisBP:0   MisRate:0.00%    MPKI:0.00
PC:14a46     Total:165570      MisBP:0   MisRate:0.00%    MPKI:0.00
PC:15fb4     Total:8729      MisBP:0   MisRate:0.00%    MPKI:0.00
PC:15aae     Total:8739      MisBP:0   MisRate:0.00%    MPKI:0.00
PC:15cea     Total:8725      MisBP:0   MisRate:0.00%    MPKI:0.00
PC:15ae8     Total:8761      MisBP:0   MisRate:0.00%    MPKI:0.00
PC:15f22     Total:8726      MisBP:0   MisRate:0.00%    MPKI:0.00
PC:10ee0     Total:155      MisBP:0   MisRate:0.00%    MPKI:0.00
PC:163cc     Total:8735      MisBP:0   MisRate:0.00%    MPKI:0.00
PC:15b22     Total:8810      MisBP:0   MisRate:0.00%    MPKI:0.00
PC:15f5c     Total:8756      MisBP:0   MisRate:0.00%    MPKI:0.00
PC:15cae     Total:8701      MisBP:0   MisRate:0.00%    MPKI:0.00
PC:12286     Total:85013      MisBP:0   MisRate:0.00%    MPKI:0.00
PC:15cb8     Total:8728      MisBP:0   MisRate:0.00%    MPKI:0.00
PC:15ef4     Total:8765      MisBP:0   MisRate:0.00%    MPKI:0.00
PC:10eb2     Total:141      MisBP:0   MisRate:0.00%    MPKI:0.00
PC:15cba     Total:8709      MisBP:0   MisRate:0.00%    MPKI:0.00
PC:12292     Total:84286      MisBP:0   MisRate:0.00%    MPKI:0.00
PC:14a50     Total:165460      MisBP:0   MisRate:0.00%    MPKI:0.00
PC:16362     Total:8749      MisBP:0   MisRate:0.00%    MPKI:0.00
PC:15ab8     Total:8724      MisBP:0   MisRate:0.00%    MPKI:0.00
PC:10f76     Total:169      MisBP:0   MisRate:0.00%    MPKI:0.00
PC:15fb8     Total:8739      MisBP:0   MisRate:0.00%    MPKI:0.00
PC:15ef2     Total:8765      MisBP:0   MisRate:0.00%    MPKI:0.00
PC:15bb6     Total:8842      MisBP:0   MisRate:0.00%    MPKI:0.00
PC:14a44     Total:165575      MisBP:0   MisRate:0.00%    MPKI:0.00
PC:15ab6     Total:8724      MisBP:0   MisRate:0.00%    MPKI:0.00
PC:15ef0     Total:8762      MisBP:0   MisRate:0.00%    MPKI:0.00
PC:10eae     Total:141      MisBP:0   MisRate:0.00%    MPKI:0.00
PC:15bb4     Total:8842      MisBP:0   MisRate:0.00%    MPKI:0.00
PC:15cb6     Total:8714      MisBP:0   MisRate:0.00%    MPKI:0.00
PC:1228e     Total:85108      MisBP:0   MisRate:0.00%    MPKI:0.00
PC:14a4c     Total:165474      MisBP:0   MisRate:0.00%    MPKI:0.00
PC:1635e     Total:8746      MisBP:0   MisRate:0.00%    MPKI:0.00
PC:15ab4     Total:8738      MisBP:0   MisRate:0.00%    MPKI:0.00
PC:10f72     Total:169      MisBP:0   MisRate:0.00%    MPKI:0.00
PC:15cc6     Total:8705      MisBP:0   MisRate:0.00%    MPKI:0.00
PC:15bc0     Total:8843      MisBP:0   MisRate:0.00%    MPKI:0.00
PC:15b1e     Total:8815      MisBP:0   MisRate:0.00%    MPKI:0.00
PC:15f58     Total:8756      MisBP:0   MisRate:0.00%    MPKI:0.00
PC:15caa     Total:8699      MisBP:0   MisRate:0.00%    MPKI:0.00
PC:12282     Total:85080      MisBP:0   MisRate:0.00%    MPKI:0.00
PC:14a40     Total:165576      MisBP:0   MisRate:0.00%    MPKI:0.00
PC:16352     Total:8746      MisBP:0   MisRate:0.00%    MPKI:0.00
PC:15aa8     Total:8739      MisBP:0   MisRate:0.00%    MPKI:0.00
PC:15ce4     Total:8703      MisBP:0   MisRate:0.00%    MPKI:0.00
PC:15ae2     Total:8737      MisBP:0   MisRate:0.00%    MPKI:0.00
PC:15f1c     Total:8726      MisBP:0   MisRate:0.00%    MPKI:0.00
PC:13402     Total:179      MisBP:0   MisRate:0.00%    MPKI:0.00
PC:1229e     Total:607498      MisBP:0   MisRate:0.00%    MPKI:0.00
PC:14a5c     Total:373358      MisBP:0   MisRate:0.00%    MPKI:0.00
PC:15ac4     Total:8716      MisBP:0   MisRate:0.00%    MPKI:0.00
PC:10f82     Total:167      MisBP:0   MisRate:0.00%    MPKI:0.00
PC:15fc4     Total:8723      MisBP:0   MisRate:0.00%    MPKI:0.00
PC:15efe     Total:8771      MisBP:0   MisRate:0.00%    MPKI:0.00
PC:10ebc     Total:155      MisBP:0   MisRate:0.00%    MPKI:0.00
PC:1646c     Total:8757      MisBP:0   MisRate:0.00%    MPKI:0.00
PC:13404     Total:179      MisBP:0   MisRate:0.00%    MPKI:0.00
PC:15bc2     Total:8843      MisBP:0   MisRate:0.00%    MPKI:0.00
PC:15ee4     Total:8745      MisBP:0   MisRate:0.00%    MPKI:0.00
PC:15aac     Total:8739      MisBP:0   MisRate:0.00%    MPKI:0.00
PC:15ee6     Total:8745      MisBP:0   MisRate:0.00%    MPKI:0.00
PC:10ea4     Total:141      MisBP:0   MisRate:0.00%    MPKI:0.00
PC:15baa     Total:8835      MisBP:0   MisRate:0.00%    MPKI:0.00
PC:15ce8     Total:8704      MisBP:0   MisRate:0.00%    MPKI:0.00
PC:15ae6     Total:8737      MisBP:0   MisRate:0.00%    MPKI:0.00
PC:15b20     Total:8810      MisBP:0   MisRate:0.00%    MPKI:0.00
PC:15f5a     Total:8756      MisBP:0   MisRate:0.00%    MPKI:0.00
PC:15cac     Total:8699      MisBP:0   MisRate:0.00%    MPKI:0.00
PC:16354     Total:8746      MisBP:0   MisRate:0.00%    MPKI:0.00
PC:15aaa     Total:8739      MisBP:0   MisRate:0.00%    MPKI:0.00
PC:15aba     Total:8724      MisBP:0   MisRate:0.00%    MPKI:0.00
PC:10ea2     Total:141      MisBP:0   MisRate:0.00%    MPKI:0.00
PC:15ba8     Total:8854      MisBP:0   MisRate:0.00%    MPKI:0.00
PC:15ce6     Total:8704      MisBP:0   MisRate:0.00%    MPKI:0.00
PC:15ae4     Total:8753      MisBP:0   MisRate:0.00%    MPKI:0.00
PC:10fa2     Total:2      MisBP:0   MisRate:0.00%    MPKI:0.00
PC:15f1e     Total:8726      MisBP:0   MisRate:0.00%    MPKI:0.00
PC:10edc     Total:1      MisBP:0   MisRate:0.00%    MPKI:0.00
PC:15cc4     Total:8703      MisBP:0   MisRate:0.00%    MPKI:0.00
PC:1229c     Total:84202      MisBP:0   MisRate:0.00%    MPKI:0.00
PC:15ac2     Total:8716      MisBP:0   MisRate:0.00%    MPKI:0.00
PC:15cfa     Total:8728      MisBP:0   MisRate:0.00%    MPKI:0.00
PC:15cfe     Total:8737      MisBP:0   MisRate:0.00%    MPKI:0.00
PC:1333e     Total:157      MisBP:0   MisRate:0.00%    MPKI:0.00
PC:15afc     Total:8775      MisBP:0   MisRate:0.00%    MPKI:0.00
PC:15f36     Total:8767      MisBP:0   MisRate:0.00%    MPKI:0.00
PC:10ef4     Total:153      MisBP:0   MisRate:0.00%    MPKI:0.00
PC:15cfc     Total:8727      MisBP:0   MisRate:0.00%    MPKI:0.00
PC:163a4     Total:8714      MisBP:0   MisRate:0.00%    MPKI:0.00
PC:1333c     Total:157      MisBP:0   MisRate:0.00%    MPKI:0.00
PC:15afa     Total:8778      MisBP:0   MisRate:0.00%    MPKI:0.00
PC:15f34     Total:8752      MisBP:0   MisRate:0.00%    MPKI:0.00
PC:10ef2     Total:153      MisBP:0   MisRate:0.00%    MPKI:0.00
PC:10ef6     Total:153      MisBP:0   MisRate:0.00%    MPKI:0.00
PC:1333a     Total:157      MisBP:0   MisRate:0.00%    MPKI:0.00
PC:15af8     Total:8778      MisBP:0   MisRate:0.00%    MPKI:0.00
PC:15f32     Total:8739      MisBP:0   MisRate:0.00%    MPKI:0.00
PC:10ef0     Total:153      MisBP:0   MisRate:0.00%    MPKI:0.00
PC:15cf8     Total:8715      MisBP:0   MisRate:0.00%    MPKI:0.00
PC:13338     Total:157      MisBP:0   MisRate:0.00%    MPKI:0.00
PC:15af6     Total:8756      MisBP:0   MisRate:0.00%    MPKI:0.00
PC:15f30     Total:8739      MisBP:0   MisRate:0.00%    MPKI:0.00
PC:10eee     Total:153      MisBP:0   MisRate:0.00%    MPKI:0.00
PC:15cf6     Total:8715      MisBP:0   MisRate:0.00%    MPKI:0.00
PC:10efc     Total:145      MisBP:0   MisRate:0.00%    MPKI:0.00
PC:15f44     Total:8741      MisBP:0   MisRate:0.00%    MPKI:0.00
PC:1334a     Total:11      MisBP:0   MisRate:0.00%    MPKI:0.00
PC:15b08     Total:8770      MisBP:0   MisRate:0.00%    MPKI:0.00
PC:164b4     Total:8738      MisBP:0   MisRate:0.00%    MPKI:0.00
PC:1dbee     Total:558      MisBP:0   MisRate:0.00%    MPKI:0.00
PC:18bac     Total:58      MisBP:0   MisRate:0.00%    MPKI:0.00
PC:15b06     Total:8770      MisBP:0   MisRate:0.00%    MPKI:0.00
PC:15f40     Total:8741      MisBP:0   MisRate:0.00%    MPKI:0.00
PC:10efe     Total:980      MisBP:0   MisRate:0.00%    MPKI:0.00
PC:15b04     Total:8770      MisBP:0   MisRate:0.00%    MPKI:0.00
PC:15f3e     Total:8762      MisBP:0   MisRate:0.00%    MPKI:0.00
PC:13336     Total:157      MisBP:0   MisRate:0.00%    MPKI:0.00
PC:15d04     Total:8724      MisBP:0   MisRate:0.00%    MPKI:0.00
PC:13344     Total:160      MisBP:0   MisRate:0.00%    MPKI:0.00
PC:15b02     Total:8746      MisBP:0   MisRate:0.00%    MPKI:0.00
PC:15d02     Total:8724      MisBP:0   MisRate:0.00%    MPKI:0.00
PC:13342     Total:160      MisBP:0   MisRate:0.00%    MPKI:0.00
PC:15b00     Total:8746      MisBP:0   MisRate:0.00%    MPKI:0.00
PC:15d00     Total:8717      MisBP:0   MisRate:0.00%    MPKI:0.00
PC:13340     Total:160      MisBP:0   MisRate:0.00%    MPKI:0.00
PC:15afe     Total:8775      MisBP:0   MisRate:0.00%    MPKI:0.00
PC:15f38     Total:8764      MisBP:0   MisRate:0.00%    MPKI:0.00
PC:15fbe     Total:8700      MisBP:0   MisRate:0.00%    MPKI:0.00
PC:15aea     Total:8761      MisBP:0   MisRate:0.00%    MPKI:0.00
PC:15cc2     Total:8703      MisBP:0   MisRate:0.00%    MPKI:0.00
PC:1229a     Total:84235      MisBP:0   MisRate:0.00%    MPKI:0.00
PC:14a58     Total:160338      MisBP:0   MisRate:0.00%    MPKI:0.00
PC:15ac0     Total:8718      MisBP:0   MisRate:0.00%    MPKI:0.00
PC:10f7e     Total:169      MisBP:0   MisRate:0.00%    MPKI:0.00
PC:15efa     Total:8773      MisBP:0   MisRate:0.00%    MPKI:0.00
PC:10eb8     Total:155      MisBP:0   MisRate:0.00%    MPKI:0.00
PC:15cc0     Total:8684      MisBP:0   MisRate:0.00%    MPKI:0.00
PC:15abe     Total:8724      MisBP:0   MisRate:0.00%    MPKI:0.00
PC:10f7c     Total:169      MisBP:0   MisRate:0.00%    MPKI:0.00
PC:1332c     Total:785      MisBP:0   MisRate:0.00%    MPKI:0.00
PC:15bbc     Total:8842      MisBP:0   MisRate:0.00%    MPKI:0.00
PC:16366     Total:8749      MisBP:0   MisRate:0.00%    MPKI:0.00
PC:15abc     Total:8724      MisBP:0   MisRate:0.00%    MPKI:0.00
PC:10f7a     Total:169      MisBP:0   MisRate:0.00%    MPKI:0.00
PC:15ef6     Total:8778      MisBP:0   MisRate:0.00%    MPKI:0.00
PC:16464     Total:8764      MisBP:0   MisRate:0.00%    MPKI:0.00
PC:133fc     Total:153      MisBP:0   MisRate:0.00%    MPKI:0.00
PC:15bba     Total:8842      MisBP:0   MisRate:0.00%    MPKI:0.00
PC:15cbc     Total:8709      MisBP:0   MisRate:0.00%    MPKI:0.00
PC:16364     Total:8749      MisBP:0   MisRate:0.00%    MPKI:0.00
PC:10ee8     Total:155      MisBP:0   MisRate:0.00%    MPKI:0.00
PC:15af4     Total:8766      MisBP:0   MisRate:0.00%    MPKI:0.00
PC:15f2e     Total:8739      MisBP:0   MisRate:0.00%    MPKI:0.00
PC:10eec     Total:153      MisBP:0   MisRate:0.00%    MPKI:0.00
PC:15cf4     Total:8715      MisBP:0   MisRate:0.00%    MPKI:0.00
PC:13334     Total:157      MisBP:0   MisRate:0.00%    MPKI:0.00
PC:15af2     Total:8766      MisBP:0   MisRate:0.00%    MPKI:0.00
PC:15cf2     Total:8715      MisBP:0   MisRate:0.00%    MPKI:0.00
PC:1639a     Total:8714      MisBP:0   MisRate:0.00%    MPKI:0.00
PC:13332     Total:157      MisBP:0   MisRate:0.00%    MPKI:0.00
PC:15af0     Total:8766      MisBP:0   MisRate:0.00%    MPKI:0.00
PC:15f2a     Total:8720      MisBP:0   MisRate:0.00%    MPKI:0.00
PC:15cc8     Total:8705      MisBP:0   MisRate:0.00%    MPKI:0.00
PC:15cf0     Total:8715      MisBP:0   MisRate:0.00%    MPKI:0.00
PC:13330     Total:157      MisBP:0   MisRate:0.00%    MPKI:0.00
PC:15aee     Total:8748      MisBP:0   MisRate:0.00%    MPKI:0.00
PC:15f28     Total:8720      MisBP:0   MisRate:0.00%    MPKI:0.00
PC:10ee6     Total:155      MisBP:0   MisRate:0.00%    MPKI:0.00
PC:15cee     Total:8724      MisBP:0   MisRate:0.00%    MPKI:0.00
PC:16396     Total:8714      MisBP:0   MisRate:0.00%    MPKI:0.00
PC:1332e     Total:157      MisBP:0   MisRate:0.00%    MPKI:0.00
PC:15aec     Total:8748      MisBP:0   MisRate:0.00%    MPKI:0.00
PC:15cec     Total:8724      MisBP:0   MisRate:0.00%    MPKI:0.00
PC:15b70     Total:8795      MisBP:0   MisRate:0.00%    MPKI:0.00
PC:15b62     Total:8810      MisBP:0   MisRate:0.00%    MPKI:0.00
PC:15f9c     Total:8756      MisBP:0   MisRate:0.00%    MPKI:0.00
PC:15b66     Total:8810      MisBP:0   MisRate:0.00%    MPKI:0.00
PC:15fa0     Total:8756      MisBP:0   MisRate:0.00%    MPKI:0.00
PC:133aa     Total:1      MisBP:0   MisRate:0.00%    MPKI:0.00
PC:15b68     Total:8810      MisBP:0   MisRate:0.00%    MPKI:0.00
PC:15fa2     Total:8756      MisBP:0   MisRate:0.00%    MPKI:0.00
PC:133ae     Total:1      MisBP:0   MisRate:0.00%    MPKI:0.00
PC:15b6c     Total:8810      MisBP:0   MisRate:0.00%    MPKI:0.00
PC:1539a     Total:1      MisBP:0   MisRate:0.00%    MPKI:0.00
PC:133b2     Total:1      MisBP:0   MisRate:0.00%    MPKI:0.00
PC:133a4     Total:1      MisBP:0   MisRate:0.00%    MPKI:0.00
PC:15faa     Total:8754      MisBP:0   MisRate:0.00%    MPKI:0.00
PC:15b72     Total:8795      MisBP:0   MisRate:0.00%    MPKI:0.00
PC:15fac     Total:8735      MisBP:0   MisRate:0.00%    MPKI:0.00
PC:15b74     Total:8771      MisBP:0   MisRate:0.00%    MPKI:0.00
PC:15fae     Total:8733      MisBP:0   MisRate:0.00%    MPKI:0.00
PC:16420     Total:8842      MisBP:0   MisRate:0.00%    MPKI:0.00
PC:15b76     Total:8809      MisBP:0   MisRate:0.00%    MPKI:0.00
PC:15fb0     Total:8729      MisBP:0   MisRate:0.00%    MPKI:0.00
PC:15b78     Total:8808      MisBP:0   MisRate:0.00%    MPKI:0.00
PC:16426     Total:8845      MisBP:0   MisRate:0.00%    MPKI:0.00
PC:15b5a     Total:8793      MisBP:0   MisRate:0.00%    MPKI:0.00
PC:13392     Total:3      MisBP:0   MisRate:0.00%    MPKI:0.00
PC:15b50     Total:8756      MisBP:0   MisRate:0.00%    MPKI:0.00
PC:13394     Total:3      MisBP:0   MisRate:0.00%    MPKI:0.00
PC:15b52     Total:8756      MisBP:0   MisRate:0.00%    MPKI:0.00
PC:15f8c     Total:8745      MisBP:0   MisRate:0.00%    MPKI:0.00
PC:13396     Total:3      MisBP:0   MisRate:0.00%    MPKI:0.00
PC:15b54     Total:8755      MisBP:0   MisRate:0.00%    MPKI:0.00
PC:1339a     Total:1      MisBP:0   MisRate:0.00%    MPKI:0.00
PC:15b58     Total:8797      MisBP:0   MisRate:0.00%    MPKI:0.00
PC:16404     Total:8842      MisBP:0   MisRate:0.00%    MPKI:0.00
PC:1339c     Total:1      MisBP:0   MisRate:0.00%    MPKI:0.00
PC:15b7c     Total:8808      MisBP:0   MisRate:0.00%    MPKI:0.00
PC:15f94     Total:8745      MisBP:0   MisRate:0.00%    MPKI:0.00
PC:1339e     Total:1      MisBP:0   MisRate:0.00%    MPKI:0.00
PC:15b5c     Total:8828      MisBP:0   MisRate:0.00%    MPKI:0.00
PC:15f96     Total:8751      MisBP:0   MisRate:0.00%    MPKI:0.00
PC:133a0     Total:1      MisBP:0   MisRate:0.00%    MPKI:0.00
PC:15b5e     Total:8810      MisBP:0   MisRate:0.00%    MPKI:0.00
PC:15f98     Total:8739      MisBP:0   MisRate:0.00%    MPKI:0.00
PC:133a2     Total:1      MisBP:0   MisRate:0.00%    MPKI:0.00
PC:15b60     Total:8810      MisBP:0   MisRate:0.00%    MPKI:0.00
PC:15f9a     Total:8756      MisBP:0   MisRate:0.00%    MPKI:0.00
PC:15d0e     Total:8737      MisBP:0   MisRate:0.00%    MPKI:0.00
PC:1340c     Total:1      MisBP:0   MisRate:0.00%    MPKI:0.00
PC:15bca     Total:8843      MisBP:0   MisRate:0.00%    MPKI:0.00
PC:13414     Total:1      MisBP:0   MisRate:0.00%    MPKI:0.00
PC:15bd2     Total:8838      MisBP:0   MisRate:0.00%    MPKI:0.00
PC:13418     Total:1      MisBP:0   MisRate:0.00%    MPKI:0.00
PC:15bd6     Total:8847      MisBP:0   MisRate:0.00%    MPKI:0.00
PC:15d06     Total:8737      MisBP:0   MisRate:0.00%    MPKI:0.00
PC:15d08     Total:8737      MisBP:0   MisRate:0.00%    MPKI:0.00
PC:361b0     Total:213      MisBP:0   MisRate:0.00%    MPKI:0.00
PC:12fe2     Total:1      MisBP:0   MisRate:0.00%    MPKI:0.00
PC:15d0a     Total:8737      MisBP:0   MisRate:0.00%    MPKI:0.00
PC:15bae     Total:8835      MisBP:0   MisRate:0.00%    MPKI:0.00
PC:361b6     Total:179      MisBP:0   MisRate:0.00%    MPKI:0.00
PC:12fe8     Total:1      MisBP:0   MisRate:0.00%    MPKI:0.00
PC:15d10     Total:8737      MisBP:0   MisRate:0.00%    MPKI:0.00
PC:361ba     Total:533      MisBP:0   MisRate:0.00%    MPKI:0.00
PC:12fec     Total:1      MisBP:0   MisRate:0.00%    MPKI:0.00
PC:15d14     Total:8724      MisBP:0   MisRate:0.00%    MPKI:0.00
PC:15d16     Total:8724      MisBP:0   MisRate:0.00%    MPKI:0.00
PC:361be     Total:119      MisBP:0   MisRate:0.00%    MPKI:0.00
PC:12ff0     Total:1      MisBP:0   MisRate:0.00%    MPKI:0.00
PC:15d18     Total:8732      MisBP:0   MisRate:0.00%    MPKI:0.00
PC:15b90     Total:8827      MisBP:0   MisRate:0.00%    MPKI:0.00
PC:15fb6     Total:8739      MisBP:0   MisRate:0.00%    MPKI:0.00
PC:15b7e     Total:8808      MisBP:0   MisRate:0.00%    MPKI:0.00
PC:1642a     Total:8845      MisBP:0   MisRate:0.00%    MPKI:0.00
PC:15b80     Total:8798      MisBP:0   MisRate:0.00%    MPKI:0.00
PC:15fba     Total:8739      MisBP:0   MisRate:0.00%    MPKI:0.00
PC:15b82     Total:8798      MisBP:0   MisRate:0.00%    MPKI:0.00
PC:15b84     Total:8798      MisBP:0   MisRate:0.00%    MPKI:0.00
PC:15b86     Total:8797      MisBP:0   MisRate:0.00%    MPKI:0.00
PC:16434     Total:8842      MisBP:0   MisRate:0.00%    MPKI:0.00
PC:15b8a     Total:8797      MisBP:0   MisRate:0.00%    MPKI:0.00
PC:15b8c     Total:8797      MisBP:0   MisRate:0.00%    MPKI:0.00
PC:15f86     Total:8745      MisBP:0   MisRate:0.00%    MPKI:0.00
PC:15fca     Total:8723      MisBP:0   MisRate:0.00%    MPKI:0.00
PC:15b92     Total:8827      MisBP:0   MisRate:0.00%    MPKI:0.00
PC:15b94     Total:8811      MisBP:0   MisRate:0.00%    MPKI:0.00
PC:15b96     Total:8811      MisBP:0   MisRate:0.00%    MPKI:0.00
PC:16442     Total:8810      MisBP:0   MisRate:0.00%    MPKI:0.00
PC:15b98     Total:8854      MisBP:0   MisRate:0.00%    MPKI:0.00
PC:15b9a     Total:8854      MisBP:0   MisRate:0.00%    MPKI:0.00
PC:15b9e     Total:8854      MisBP:0   MisRate:0.00%    MPKI:0.00
PC:15ba0     Total:8854      MisBP:0   MisRate:0.00%    MPKI:0.00
PC:15ba4     Total:8854      MisBP:0   MisRate:0.00%    MPKI:0.00
PC:14a6a     Total:740150      MisBP:0   MisRate:0.00%    MPKI:0.00
PC:16476     Total:8765      MisBP:0   MisRate:0.00%    MPKI:0.00
PC:1340e     Total:5      MisBP:0   MisRate:0.00%    MPKI:0.00
PC:15bcc     Total:8843      MisBP:0   MisRate:0.00%    MPKI:0.00
PC:15cd2     Total:8706      MisBP:0   MisRate:0.00%    MPKI:0.00
PC:14a68     Total:372687      MisBP:0   MisRate:0.00%    MPKI:0.00
PC:15ad0     Total:8733      MisBP:0   MisRate:0.00%    MPKI:0.00
PC:15f0a     Total:8738      MisBP:0   MisRate:0.00%    MPKI:0.00
PC:13410     Total:1      MisBP:0   MisRate:0.00%    MPKI:0.00
PC:15bce     Total:8843      MisBP:0   MisRate:0.00%    MPKI:0.00
PC:15cd4     Total:8706      MisBP:0   MisRate:0.00%    MPKI:0.00
PC:122ac     Total:602645      MisBP:0   MisRate:0.00%    MPKI:0.00
PC:10ec6     Total:155      MisBP:0   MisRate:0.00%    MPKI:0.00
PC:15ad2     Total:8723      MisBP:0   MisRate:0.00%    MPKI:0.00
PC:15f0c     Total:8738      MisBP:0   MisRate:0.00%    MPKI:0.00
PC:10eca     Total:155      MisBP:0   MisRate:0.00%    MPKI:0.00
PC:13412     Total:1      MisBP:0   MisRate:0.00%    MPKI:0.00
PC:15bd0     Total:8843      MisBP:0   MisRate:0.00%    MPKI:0.00
PC:15cd8     Total:8719      MisBP:0   MisRate:0.00%    MPKI:0.00
PC:122b0     Total:662237      MisBP:0   MisRate:0.00%    MPKI:0.00
PC:14a6e     Total:363809      MisBP:0   MisRate:0.00%    MPKI:0.00
PC:15ad6     Total:8723      MisBP:0   MisRate:0.00%    MPKI:0.00
PC:15f10     Total:8735      MisBP:0   MisRate:0.00%    MPKI:0.00
PC:15ac8     Total:8727      MisBP:0   MisRate:0.00%    MPKI:0.00
PC:16370     Total:8719      MisBP:0   MisRate:0.00%    MPKI:0.00
PC:15ac6     Total:8727      MisBP:0   MisRate:0.00%    MPKI:0.00
PC:10f84     Total:167      MisBP:0   MisRate:0.00%    MPKI:0.00
PC:15fc6     Total:8723      MisBP:0   MisRate:0.00%    MPKI:0.00
PC:15f00     Total:8740      MisBP:0   MisRate:0.00%    MPKI:0.00
PC:10ebe     Total:155      MisBP:0   MisRate:0.00%    MPKI:0.00
PC:13406     Total:179      MisBP:0   MisRate:0.00%    MPKI:0.00
PC:15bc4     Total:8843      MisBP:0   MisRate:0.00%    MPKI:0.00
PC:15cca     Total:8706      MisBP:0   MisRate:0.00%    MPKI:0.00
PC:122a2     Total:604607      MisBP:0   MisRate:0.00%    MPKI:0.00
PC:14a60     Total:373030      MisBP:0   MisRate:0.00%    MPKI:0.00
PC:10ece     Total:4      MisBP:0   MisRate:0.00%    MPKI:0.00
PC:15bc6     Total:8843      MisBP:0   MisRate:0.00%    MPKI:0.00
PC:15ccc     Total:8706      MisBP:0   MisRate:0.00%    MPKI:0.00
PC:122a4     Total:604332      MisBP:0   MisRate:0.00%    MPKI:0.00
PC:14a62     Total:372861      MisBP:0   MisRate:0.00%    MPKI:0.00
PC:15aca     Total:8727      MisBP:0   MisRate:0.00%    MPKI:0.00
PC:15f04     Total:8739      MisBP:0   MisRate:0.00%    MPKI:0.00
PC:10ec2     Total:155      MisBP:0   MisRate:0.00%    MPKI:0.00
PC:15cd0     Total:8693      MisBP:0   MisRate:0.00%    MPKI:0.00
PC:15ace     Total:8727      MisBP:0   MisRate:0.00%    MPKI:0.00
PC:15f08     Total:8738      MisBP:0   MisRate:0.00%    MPKI:0.00
PC:15b3e     Total:8808      MisBP:0   MisRate:0.00%    MPKI:0.00
PC:15b32     Total:8810      MisBP:0   MisRate:0.00%    MPKI:0.00
PC:15f6c     Total:8754      MisBP:0   MisRate:0.00%    MPKI:0.00
PC:15b34     Total:8810      MisBP:0   MisRate:0.00%    MPKI:0.00
PC:15f6e     Total:8754      MisBP:0   MisRate:0.00%    MPKI:0.00
PC:163e0     Total:8756      MisBP:0   MisRate:0.00%    MPKI:0.00
PC:15b36     Total:8808      MisBP:0   MisRate:0.00%    MPKI:0.00
PC:15b38     Total:8808      MisBP:0   MisRate:0.00%    MPKI:0.00
PC:15f72     Total:8752      MisBP:0   MisRate:0.00%    MPKI:0.00
PC:15b3c     Total:8808      MisBP:0   MisRate:0.00%    MPKI:0.00
PC:15f76     Total:8752      MisBP:0   MisRate:0.00%    MPKI:0.00
PC:13380     Total:153      MisBP:0   MisRate:0.00%    MPKI:0.00
PC:15b2e     Total:8810      MisBP:0   MisRate:0.00%    MPKI:0.00
PC:163ea     Total:8825      MisBP:0   MisRate:0.00%    MPKI:0.00
PC:15b40     Total:8773      MisBP:0   MisRate:0.00%    MPKI:0.00
PC:15f7a     Total:8752      MisBP:0   MisRate:0.00%    MPKI:0.00
PC:13386     Total:3      MisBP:0   MisRate:0.00%    MPKI:0.00
PC:15b44     Total:8773      MisBP:0   MisRate:0.00%    MPKI:0.00
PC:15f7e     Total:8752      MisBP:0   MisRate:0.00%    MPKI:0.00
PC:1338a     Total:3      MisBP:0   MisRate:0.00%    MPKI:0.00
PC:15b48     Total:8759      MisBP:0   MisRate:0.00%    MPKI:0.00
PC:1338e     Total:3      MisBP:0   MisRate:0.00%    MPKI:0.00
PC:15b4c     Total:8759      MisBP:0   MisRate:0.00%    MPKI:0.00
PC:15adc     Total:8737      MisBP:0   MisRate:0.00%    MPKI:0.00
PC:13416     Total:1      MisBP:0   MisRate:0.00%    MPKI:0.00
PC:15bd4     Total:8838      MisBP:0   MisRate:0.00%    MPKI:0.00
PC:15cdc     Total:8719      MisBP:0   MisRate:0.00%    MPKI:0.00
PC:14a72     Total:363578      MisBP:0   MisRate:0.00%    MPKI:0.00
PC:16384     Total:8702      MisBP:0   MisRate:0.00%    MPKI:0.00
PC:15ada     Total:8723      MisBP:0   MisRate:0.00%    MPKI:0.00
PC:15f14     Total:8727      MisBP:0   MisRate:0.00%    MPKI:0.00
PC:10ed2     Total:4      MisBP:0   MisRate:0.00%    MPKI:0.00
PC:15bd8     Total:8847      MisBP:0   MisRate:0.00%    MPKI:0.00
PC:15cde     Total:8732      MisBP:0   MisRate:0.00%    MPKI:0.00
PC:15b0a     Total:8770      MisBP:0   MisRate:0.00%    MPKI:0.00
PC:15ce0     Total:8706      MisBP:0   MisRate:0.00%    MPKI:0.00
PC:15ade     Total:8737      MisBP:0   MisRate:0.00%    MPKI:0.00
PC:15f18     Total:8726      MisBP:0   MisRate:0.00%    MPKI:0.00
PC:15ce2     Total:8703      MisBP:0   MisRate:0.00%    MPKI:0.00
PC:15ae0     Total:8737      MisBP:0   MisRate:0.00%    MPKI:0.00
PC:163d2     Total:8751      MisBP:0   MisRate:0.00%    MPKI:0.00
PC:15b28     Total:8810      MisBP:0   MisRate:0.00%    MPKI:0.00
PC:15f62     Total:8756      MisBP:0   MisRate:0.00%    MPKI:0.00
PC:15b2c     Total:8810      MisBP:0   MisRate:0.00%    MPKI:0.00
PC:15f66     Total:8754      MisBP:0   MisRate:0.00%    MPKI:0.00
PC:11020     Total:141      MisBP:0   MisRate:0.00%    MPKI:0.00
PC:16072     Total:8756      MisBP:0   MisRate:0.00%    MPKI:0.00
PC:11030     Total:141      MisBP:0   MisRate:0.00%    MPKI:0.00
PC:16070     Total:8756      MisBP:0   MisRate:0.00%    MPKI:0.00
PC:1606c     Total:8758      MisBP:0   MisRate:0.00%    MPKI:0.00
PC:1606a     Total:8762      MisBP:0   MisRate:0.00%    MPKI:0.00
PC:11028     Total:141      MisBP:0   MisRate:0.00%    MPKI:0.00
PC:16068     Total:8765      MisBP:0   MisRate:0.00%    MPKI:0.00
PC:11026     Total:141      MisBP:0   MisRate:0.00%    MPKI:0.00
PC:16066     Total:8765      MisBP:0   MisRate:0.00%    MPKI:0.00
PC:11024     Total:141      MisBP:0   MisRate:0.00%    MPKI:0.00
PC:16062     Total:8768      MisBP:0   MisRate:0.00%    MPKI:0.00
PC:11034     Total:141      MisBP:0   MisRate:0.00%    MPKI:0.00
PC:16060     Total:8785      MisBP:0   MisRate:0.00%    MPKI:0.00
PC:1101e     Total:141      MisBP:0   MisRate:0.00%    MPKI:0.00
PC:1605e     Total:8784      MisBP:0   MisRate:0.00%    MPKI:0.00
PC:1101c     Total:141      MisBP:0   MisRate:0.00%    MPKI:0.00
PC:1605c     Total:8784      MisBP:0   MisRate:0.00%    MPKI:0.00
PC:1101a     Total:141      MisBP:0   MisRate:0.00%    MPKI:0.00
PC:1605a     Total:8784      MisBP:0   MisRate:0.00%    MPKI:0.00
PC:16056     Total:8785      MisBP:0   MisRate:0.00%    MPKI:0.00
PC:16052     Total:8785      MisBP:0   MisRate:0.00%    MPKI:0.00
PC:11010     Total:705      MisBP:0   MisRate:0.00%    MPKI:0.00
PC:16084     Total:8704      MisBP:0   MisRate:0.00%    MPKI:0.00
PC:1105a     Total:2      MisBP:0   MisRate:0.00%    MPKI:0.00
PC:1609a     Total:8709      MisBP:0   MisRate:0.00%    MPKI:0.00
PC:16098     Total:8709      MisBP:0   MisRate:0.00%    MPKI:0.00
PC:11056     Total:2      MisBP:0   MisRate:0.00%    MPKI:0.00
PC:16096     Total:8695      MisBP:0   MisRate:0.00%    MPKI:0.00
PC:11054     Total:2      MisBP:0   MisRate:0.00%    MPKI:0.00
PC:16090     Total:8715      MisBP:0   MisRate:0.00%    MPKI:0.00
PC:1608c     Total:8702      MisBP:0   MisRate:0.00%    MPKI:0.00
PC:1104a     Total:141      MisBP:0   MisRate:0.00%    MPKI:0.00
PC:1608a     Total:8704      MisBP:0   MisRate:0.00%    MPKI:0.00
PC:11048     Total:141      MisBP:0   MisRate:0.00%    MPKI:0.00
PC:1604e     Total:8799      MisBP:0   MisRate:0.00%    MPKI:0.00
PC:11042     Total:141      MisBP:0   MisRate:0.00%    MPKI:0.00
PC:16080     Total:8704      MisBP:0   MisRate:0.00%    MPKI:0.00
PC:1103e     Total:141      MisBP:0   MisRate:0.00%    MPKI:0.00
PC:1607e     Total:8723      MisBP:0   MisRate:0.00%    MPKI:0.00
PC:1103c     Total:141      MisBP:0   MisRate:0.00%    MPKI:0.00
PC:1607c     Total:8736      MisBP:0   MisRate:0.00%    MPKI:0.00
PC:1103a     Total:141      MisBP:0   MisRate:0.00%    MPKI:0.00
PC:16078     Total:8737      MisBP:0   MisRate:0.00%    MPKI:0.00
PC:11036     Total:141      MisBP:0   MisRate:0.00%    MPKI:0.00
PC:16076     Total:8738      MisBP:0   MisRate:0.00%    MPKI:0.00
PC:10fba     Total:572      MisBP:0   MisRate:0.00%    MPKI:0.00
PC:1601a     Total:8816      MisBP:0   MisRate:0.00%    MPKI:0.00
PC:16018     Total:8818      MisBP:0   MisRate:0.00%    MPKI:0.00
PC:16014     Total:8818      MisBP:0   MisRate:0.00%    MPKI:0.00
PC:16010     Total:8818      MisBP:0   MisRate:0.00%    MPKI:0.00
PC:1600e     Total:8820      MisBP:0   MisRate:0.00%    MPKI:0.00
PC:1600a     Total:8823      MisBP:0   MisRate:0.00%    MPKI:0.00
PC:16006     Total:8823      MisBP:0   MisRate:0.00%    MPKI:0.00
PC:16002     Total:8823      MisBP:0   MisRate:0.00%    MPKI:0.00
PC:16000     Total:8823      MisBP:0   MisRate:0.00%    MPKI:0.00
PC:15ffe     Total:8835      MisBP:0   MisRate:0.00%    MPKI:0.00
PC:15ffc     Total:8835      MisBP:0   MisRate:0.00%    MPKI:0.00
PC:1601c     Total:8816      MisBP:0   MisRate:0.00%    MPKI:0.00
PC:15ffa     Total:8836      MisBP:0   MisRate:0.00%    MPKI:0.00
PC:10fb8     Total:144      MisBP:0   MisRate:0.00%    MPKI:0.00
PC:15ff8     Total:8838      MisBP:0   MisRate:0.00%    MPKI:0.00
PC:10fb6     Total:144      MisBP:0   MisRate:0.00%    MPKI:0.00
PC:15ff6     Total:8830      MisBP:0   MisRate:0.00%    MPKI:0.00
PC:10fb4     Total:144      MisBP:0   MisRate:0.00%    MPKI:0.00
PC:15ff4     Total:8831      MisBP:0   MisRate:0.00%    MPKI:0.00
PC:10fb2     Total:144      MisBP:0   MisRate:0.00%    MPKI:0.00
PC:15ff0     Total:8779      MisBP:0   MisRate:0.00%    MPKI:0.00
PC:10fae     Total:144      MisBP:0   MisRate:0.00%    MPKI:0.00
PC:16036     Total:8826      MisBP:0   MisRate:0.00%    MPKI:0.00
PC:1604c     Total:8803      MisBP:0   MisRate:0.00%    MPKI:0.00
PC:1604a     Total:8803      MisBP:0   MisRate:0.00%    MPKI:0.00
PC:16048     Total:8802      MisBP:0   MisRate:0.00%    MPKI:0.00
PC:16046     Total:8802      MisBP:0   MisRate:0.00%    MPKI:0.00
PC:16044     Total:8794      MisBP:0   MisRate:0.00%    MPKI:0.00
PC:16042     Total:8795      MisBP:0   MisRate:0.00%    MPKI:0.00
PC:16040     Total:8797      MisBP:0   MisRate:0.00%    MPKI:0.00
PC:1603e     Total:8812      MisBP:0   MisRate:0.00%    MPKI:0.00
PC:1603c     Total:8826      MisBP:0   MisRate:0.00%    MPKI:0.00
PC:1603a     Total:8826      MisBP:0   MisRate:0.00%    MPKI:0.00
PC:16038     Total:8826      MisBP:0   MisRate:0.00%    MPKI:0.00
PC:1609c     Total:8708      MisBP:0   MisRate:0.00%    MPKI:0.00
PC:16032     Total:8829      MisBP:0   MisRate:0.00%    MPKI:0.00
PC:16030     Total:8829      MisBP:0   MisRate:0.00%    MPKI:0.00
PC:1602e     Total:8829      MisBP:0   MisRate:0.00%    MPKI:0.00
PC:1602c     Total:8829      MisBP:0   MisRate:0.00%    MPKI:0.00
PC:1602a     Total:8842      MisBP:0   MisRate:0.00%    MPKI:0.00
PC:16028     Total:8815      MisBP:0   MisRate:0.00%    MPKI:0.00
PC:16026     Total:8815      MisBP:0   MisRate:0.00%    MPKI:0.00
PC:16024     Total:8812      MisBP:0   MisRate:0.00%    MPKI:0.00
PC:16020     Total:8815      MisBP:0   MisRate:0.00%    MPKI:0.00
PC:1601e     Total:8815      MisBP:0   MisRate:0.00%    MPKI:0.00
PC:111a0     Total:38      MisBP:0   MisRate:0.00%    MPKI:0.00
PC:16138     Total:8729      MisBP:0   MisRate:0.00%    MPKI:0.00
PC:16134     Total:8729      MisBP:0   MisRate:0.00%    MPKI:0.00
PC:16132     Total:8729      MisBP:0   MisRate:0.00%    MPKI:0.00
PC:16130     Total:8729      MisBP:0   MisRate:0.00%    MPKI:0.00
[...]
PC:12f1e     Total:13      MisBP:0   MisRate:0.00%    MPKI:0.00
PC:156dc     Total:8809      MisBP:0   MisRate:0.00%    MPKI:0.00
PC:156c4     Total:8790      MisBP:0   MisRate:0.00%    MPKI:0.00
PC:297e4     Total:51      MisBP:0   MisRate:0.00%    MPKI:0.00
PC:12f06     Total:13      MisBP:0   MisRate:0.00%    MPKI:0.00
PC:29744     Total:140      MisBP:0   MisRate:0.00%    MPKI:0.00
PC:18d6a     Total:975      MisBP:0   MisRate:0.00%    MPKI:0.00
PC:15630     Total:8658      MisBP:0   MisRate:0.00%    MPKI:0.00
PC:156de     Total:8809      MisBP:0   MisRate:0.00%    MPKI:0.00
PC:18e1c     Total:1012      MisBP:0   MisRate:0.00%    MPKI:0.00
PC:29734     Total:141      MisBP:0   MisRate:0.00%    MPKI:0.00
PC:1418a     Total:1      MisBP:0   MisRate:0.00%    MPKI:0.00
PC:12e80     Total:69752      MisBP:0   MisRate:0.00%    MPKI:0.00
PC:191cc     Total:3      MisBP:0   MisRate:0.00%    MPKI:0.00
PC:16948     Total:174      MisBP:0   MisRate:0.00%    MPKI:0.00
PC:294d0     Total:157      MisBP:0   MisRate:0.00%    MPKI:0.00
PC:12f22     Total:1      MisBP:0   MisRate:0.00%    MPKI:0.00
PC:156e0     Total:8808      MisBP:0   MisRate:0.00%    MPKI:0.00
PC:29420     Total:645      MisBP:0   MisRate:0.00%    MPKI:0.00
PC:156da     Total:8809      MisBP:0   MisRate:0.00%    MPKI:0.00
PC:119c8     Total:2613075      MisBP:0   MisRate:0.00%    MPKI:0.00
PC:12e72     Total:69769      MisBP:0   MisRate:0.00%    MPKI:0.00
PC:156c6     Total:8790      MisBP:0   MisRate:0.00%    MPKI:0.00
PC:12f08     Total:13      MisBP:0   MisRate:0.00%    MPKI:0.00
PC:12e7e     Total:69760      MisBP:0   MisRate:0.00%    MPKI:0.00
PC:1692e     Total:4      MisBP:0   MisRate:0.00%    MPKI:0.00
PC:119b4     Total:3406345      MisBP:0   MisRate:0.00%    MPKI:0.00
PC:191b2     Total:3      MisBP:0   MisRate:0.00%    MPKI:0.00
PC:15318     Total:8      MisBP:0   MisRate:0.00%    MPKI:0.00
PC:14170     Total:40      MisBP:0   MisRate:0.00%    MPKI:0.00
PC:16930     Total:4      MisBP:0   MisRate:0.00%    MPKI:0.00
PC:119b2     Total:3409615      MisBP:0   MisRate:0.00%    MPKI:0.00
PC:294b8     Total:158      MisBP:0   MisRate:0.00%    MPKI:0.00
PC:14172     Total:39      MisBP:0   MisRate:0.00%    MPKI:0.00
PC:297cc     Total:51      MisBP:0   MisRate:0.00%    MPKI:0.00
PC:16944     Total:174      MisBP:0   MisRate:0.00%    MPKI:0.00
PC:191b4     Total:3      MisBP:0   MisRate:0.00%    MPKI:0.00
PC:3624e     Total:15      MisBP:1   MisRate:6.67%    MPKI:0.00
PC:165a8     Total:1      MisBP:1   MisRate:100.00%    MPKI:0.00
PC:39800     Total:2      MisBP:1   MisRate:50.00%    MPKI:0.00
PC:11c66     Total:10      MisBP:1   MisRate:10.00%    MPKI:0.00
PC:111de     Total:25      MisBP:1   MisRate:4.00%    MPKI:0.00
PC:18e04     Total:33      MisBP:1   MisRate:3.03%    MPKI:0.00
PC:130ae     Total:719332      MisBP:1   MisRate:0.00%    MPKI:0.00
PC:12fd8     Total:1      MisBP:1   MisRate:100.00%    MPKI:0.00
PC:11b88     Total:1      MisBP:1   MisRate:100.00%    MPKI:0.00
PC:293d0     Total:155      MisBP:1   MisRate:0.65%    MPKI:0.00
PC:119be     Total:12982725      MisBP:1   MisRate:0.00%    MPKI:0.00
PC:13000     Total:3      MisBP:1   MisRate:33.33%    MPKI:0.00
PC:18fa0     Total:9      MisBP:1   MisRate:11.11%    MPKI:0.00
PC:125b2     Total:1      MisBP:1   MisRate:100.00%    MPKI:0.00
PC:167d0     Total:227      MisBP:1   MisRate:0.44%    MPKI:0.00
PC:12e6c     Total:69771      MisBP:1   MisRate:0.00%    MPKI:0.00
PC:12fde     Total:1      MisBP:1   MisRate:100.00%    MPKI:0.00
PC:1417e     Total:21      MisBP:1   MisRate:4.76%    MPKI:0.00
PC:14af2     Total:1      MisBP:1   MisRate:100.00%    MPKI:0.00
PC:140be     Total:140      MisBP:1   MisRate:0.71%    MPKI:0.00
PC:3970e     Total:4      MisBP:1   MisRate:25.00%    MPKI:0.00
PC:29404     Total:155      MisBP:1   MisRate:0.65%    MPKI:0.00
PC:16768     Total:5      MisBP:1   MisRate:20.00%    MPKI:0.00
PC:14f2e     Total:4      MisBP:1   MisRate:25.00%    MPKI:0.00
PC:152f0     Total:72      MisBP:1   MisRate:1.39%    MPKI:0.00
PC:121be     Total:492      MisBP:1   MisRate:0.20%    MPKI:0.00
PC:15196     Total:13      MisBP:1   MisRate:7.69%    MPKI:0.00
PC:15408     Total:8599      MisBP:1   MisRate:0.01%    MPKI:0.00
PC:11c96     Total:9      MisBP:1   MisRate:11.11%    MPKI:0.00
PC:128f6     Total:182      MisBP:1   MisRate:0.55%    MPKI:0.00
PC:11d68     Total:5      MisBP:1   MisRate:20.00%    MPKI:0.00
PC:125f0     Total:573812      MisBP:1   MisRate:0.00%    MPKI:0.00
PC:29348     Total:168      MisBP:1   MisRate:0.60%    MPKI:0.00
PC:14f16     Total:6636      MisBP:1   MisRate:0.02%    MPKI:0.00
PC:13354     Total:773      MisBP:2   MisRate:0.26%    MPKI:0.00
PC:14bfe     Total:5295      MisBP:2   MisRate:0.04%    MPKI:0.00
PC:13074     Total:1274      MisBP:2   MisRate:0.16%    MPKI:0.00
PC:141a8     Total:158      MisBP:2   MisRate:1.27%    MPKI:0.00
PC:15498     Total:8602      MisBP:2   MisRate:0.02%    MPKI:0.00
PC:1104e     Total:141      MisBP:2   MisRate:1.42%    MPKI:0.00
PC:15504     Total:5      MisBP:2   MisRate:40.00%    MPKI:0.00
PC:151f0     Total:8      MisBP:2   MisRate:25.00%    MPKI:0.00
PC:151f8     Total:2      MisBP:2   MisRate:100.00%    MPKI:0.00
PC:1666e     Total:11      MisBP:2   MisRate:18.18%    MPKI:0.00
PC:1532a     Total:8      MisBP:2   MisRate:25.00%    MPKI:0.00
PC:11c90     Total:52      MisBP:2   MisRate:3.85%    MPKI:0.00
PC:140d2     Total:1150      MisBP:2   MisRate:0.17%    MPKI:0.00
PC:10f9c     Total:145      MisBP:2   MisRate:1.38%    MPKI:0.00
PC:16896     Total:51      MisBP:2   MisRate:3.92%    MPKI:0.00
PC:14f58     Total:27      MisBP:2   MisRate:7.41%    MPKI:0.00
PC:14f1e     Total:10      MisBP:2   MisRate:20.00%    MPKI:0.00
PC:14bc4     Total:339      MisBP:2   MisRate:0.59%    MPKI:0.00
PC:11bb4     Total:65551      MisBP:2   MisRate:0.00%    MPKI:0.00
PC:16760     Total:5800      MisBP:2   MisRate:0.03%    MPKI:0.00
PC:18de2     Total:63      MisBP:2   MisRate:3.17%    MPKI:0.00
PC:1516a     Total:23      MisBP:2   MisRate:8.70%    MPKI:0.00
PC:15286     Total:127      MisBP:2   MisRate:1.57%    MPKI:0.00
PC:12e5c     Total:160      MisBP:2   MisRate:1.25%    MPKI:0.00
PC:12eae     Total:18      MisBP:3   MisRate:16.67%    MPKI:0.00
PC:10ecc     Total:155      MisBP:3   MisRate:1.94%    MPKI:0.00
PC:18fb2     Total:9      MisBP:3   MisRate:33.33%    MPKI:0.00
PC:166b6     Total:34      MisBP:3   MisRate:8.82%    MPKI:0.00
PC:166e8     Total:43      MisBP:3   MisRate:6.98%    MPKI:0.00
PC:166f0     Total:5      MisBP:3   MisRate:60.00%    MPKI:0.00
PC:165be     Total:15      MisBP:3   MisRate:20.00%    MPKI:0.00
PC:11d8a     Total:260      MisBP:3   MisRate:1.15%    MPKI:0.00
PC:1308a     Total:19104      MisBP:3   MisRate:0.02%    MPKI:0.00
PC:13382     Total:153      MisBP:3   MisRate:1.96%    MPKI:0.00
PC:125f6     Total:573813      MisBP:3   MisRate:0.00%    MPKI:0.00
PC:16696     Total:29      MisBP:3   MisRate:10.34%    MPKI:0.00
PC:1272a     Total:144      MisBP:3   MisRate:2.08%    MPKI:0.00
PC:14bde     Total:60      MisBP:4   MisRate:6.67%    MPKI:0.00
PC:14162     Total:189      MisBP:4   MisRate:2.12%    MPKI:0.00
PC:10158     Total:546      MisBP:4   MisRate:0.73%    MPKI:0.00
PC:12902     Total:141      MisBP:4   MisRate:2.84%    MPKI:0.00
PC:12eda     Total:271      MisBP:4   MisRate:1.48%    MPKI:0.00
PC:14bf6     Total:58      MisBP:4   MisRate:6.90%    MPKI:0.00
PC:16802     Total:5      MisBP:4   MisRate:80.00%    MPKI:0.00
PC:29354     Total:17      MisBP:4   MisRate:23.53%    MPKI:0.00
PC:12e56     Total:145      MisBP:4   MisRate:2.76%    MPKI:0.00
PC:11b12     Total:33032      MisBP:5   MisRate:0.02%    MPKI:0.00
PC:154fa     Total:22      MisBP:5   MisRate:22.73%    MPKI:0.00
PC:11d58     Total:175135      MisBP:5   MisRate:0.00%    MPKI:0.00
PC:15934     Total:8744      MisBP:5   MisRate:0.06%    MPKI:0.00
PC:11d9a     Total:18      MisBP:5   MisRate:27.78%    MPKI:0.00
PC:16854     Total:6016      MisBP:5   MisRate:0.08%    MPKI:0.00
PC:29654     Total:1960      MisBP:5   MisRate:0.26%    MPKI:0.00
PC:1208c     Total:433      MisBP:5   MisRate:1.15%    MPKI:0.00
PC:153a8     Total:71      MisBP:5   MisRate:7.04%    MPKI:0.00
PC:1593e     Total:8593      MisBP:5   MisRate:0.06%    MPKI:0.00
PC:18d92     Total:1131      MisBP:5   MisRate:0.44%    MPKI:0.00
PC:167fa     Total:16      MisBP:5   MisRate:31.25%    MPKI:0.00
PC:16606     Total:6425      MisBP:5   MisRate:0.08%    MPKI:0.00
PC:18fd0     Total:6      MisBP:5   MisRate:83.33%    MPKI:0.00
PC:13346     Total:160      MisBP:5   MisRate:3.12%    MPKI:0.00
PC:361f6     Total:72      MisBP:5   MisRate:6.94%    MPKI:0.00
PC:153d2     Total:9      MisBP:5   MisRate:55.56%    MPKI:0.00
PC:1697a     Total:171      MisBP:5   MisRate:2.92%    MPKI:0.00
PC:152aa     Total:7      MisBP:6   MisRate:85.71%    MPKI:0.00
PC:166a8     Total:34      MisBP:6   MisRate:17.65%    MPKI:0.00
PC:166c4     Total:43      MisBP:6   MisRate:13.95%    MPKI:0.00
PC:153cc     Total:21      MisBP:6   MisRate:28.57%    MPKI:0.00
PC:1530e     Total:259      MisBP:7   MisRate:2.70%    MPKI:0.00
PC:15576     Total:8586      MisBP:7   MisRate:0.08%    MPKI:0.00
PC:14168     Total:189      MisBP:7   MisRate:3.70%    MPKI:0.00
PC:120e6     Total:421      MisBP:7   MisRate:1.66%    MPKI:0.00
PC:12da0     Total:114      MisBP:7   MisRate:6.14%    MPKI:0.00
PC:29818     Total:17      MisBP:7   MisRate:41.18%    MPKI:0.00
PC:18e8c     Total:80      MisBP:8   MisRate:10.00%    MPKI:0.00
PC:15120     Total:29      MisBP:8   MisRate:27.59%    MPKI:0.00
PC:151e8     Total:372      MisBP:8   MisRate:2.15%    MPKI:0.00
PC:167f2     Total:1026      MisBP:10   MisRate:0.97%    MPKI:0.00
PC:11c50     Total:175102      MisBP:10   MisRate:0.01%    MPKI:0.00
PC:12efc     Total:147      MisBP:10   MisRate:6.80%    MPKI:0.00
PC:121f0     Total:449      MisBP:10   MisRate:2.23%    MPKI:0.00
PC:18e84     Total:6336      MisBP:10   MisRate:0.16%    MPKI:0.00
PC:11cc6     Total:65553      MisBP:10   MisRate:0.02%    MPKI:0.00
PC:1511c     Total:814562      MisBP:12   MisRate:0.00%    MPKI:0.00
PC:16644     Total:495      MisBP:12   MisRate:2.42%    MPKI:0.00
PC:153c2     Total:1022      MisBP:12   MisRate:1.17%    MPKI:0.00
PC:15444     Total:151      MisBP:13   MisRate:8.61%    MPKI:0.00
PC:18e16     Total:1811      MisBP:13   MisRate:0.72%    MPKI:0.00
PC:1414a     Total:174      MisBP:13   MisRate:7.47%    MPKI:0.00
PC:29470     Total:157      MisBP:13   MisRate:8.28%    MPKI:0.00
PC:166e2     Total:313      MisBP:13   MisRate:4.15%    MPKI:0.00
PC:121dc     Total:489      MisBP:13   MisRate:2.66%    MPKI:0.00
PC:18c2e     Total:2852      MisBP:14   MisRate:0.49%    MPKI:0.00
PC:154cc     Total:109      MisBP:14   MisRate:12.84%    MPKI:0.00
PC:29804     Total:1192      MisBP:15   MisRate:1.26%    MPKI:0.00
PC:12224     Total:361      MisBP:15   MisRate:4.16%    MPKI:0.00
PC:15292     Total:134      MisBP:15   MisRate:11.19%    MPKI:0.00
PC:12182     Total:30      MisBP:16   MisRate:53.33%    MPKI:0.00
PC:12ea0     Total:69772      MisBP:17   MisRate:0.02%    MPKI:0.00
PC:18e28     Total:1010      MisBP:18   MisRate:1.78%    MPKI:0.00
PC:12140     Total:398      MisBP:19   MisRate:4.77%    MPKI:0.00
PC:15302     Total:314      MisBP:20   MisRate:6.37%    MPKI:0.00
PC:11e2a     Total:45      MisBP:22   MisRate:48.89%    MPKI:0.00
PC:297a0     Total:38      MisBP:23   MisRate:60.53%    MPKI:0.00
PC:293c4     Total:168      MisBP:24   MisRate:14.29%    MPKI:0.00
PC:12180     Total:583      MisBP:25   MisRate:4.29%    MPKI:0.00
PC:16692     Total:840      MisBP:26   MisRate:3.10%    MPKI:0.00
PC:14bb6     Total:339      MisBP:27   MisRate:7.96%    MPKI:0.00
PC:12d9c     Total:19696      MisBP:30   MisRate:0.15%    MPKI:0.00
PC:11dfc     Total:856      MisBP:31   MisRate:3.62%    MPKI:0.00
PC:1227c     Total:87218      MisBP:37   MisRate:0.04%    MPKI:0.00
PC:18c4e     Total:272      MisBP:38   MisRate:13.97%    MPKI:0.00
PC:11e26     Total:1972      MisBP:38   MisRate:1.93%    MPKI:0.00
PC:166d4     Total:319      MisBP:42   MisRate:13.17%    MPKI:0.00
PC:18cc4     Total:110      MisBP:42   MisRate:38.18%    MPKI:0.00
PC:18b64     Total:2821      MisBP:44   MisRate:1.56%    MPKI:0.00
PC:18ca4     Total:2441      MisBP:47   MisRate:1.93%    MPKI:0.00
PC:18de0     Total:3057      MisBP:59   MisRate:1.93%    MPKI:0.00
PC:167cc     Total:267      MisBP:64   MisRate:23.97%    MPKI:0.00
PC:18bf8     Total:3012      MisBP:69   MisRate:2.29%    MPKI:0.00
PC:1668c     Total:824      MisBP:76   MisRate:9.22%    MPKI:0.00
PC:1211e     Total:492975      MisBP:93   MisRate:0.02%    MPKI:0.00
PC:1221c     Total:603814      MisBP:103   MisRate:0.02%    MPKI:0.00
PC:11f7a     Total:76490      MisBP:107   MisRate:0.14%    MPKI:0.00
PC:15440     Total:788      MisBP:117   MisRate:14.85%    MPKI:0.00
PC:167e4     Total:1069      MisBP:120   MisRate:11.23%    MPKI:0.00
PC:18cd8     Total:11149      MisBP:122   MisRate:1.09%    MPKI:0.00
PC:167b8     Total:972      MisBP:131   MisRate:13.48%    MPKI:0.00
PC:29454     Total:581      MisBP:145   MisRate:24.96%    MPKI:0.00
PC:18c62     Total:10200      MisBP:159   MisRate:1.56%    MPKI:0.00
PC:130b6     Total:719122      MisBP:161   MisRate:0.02%    MPKI:0.00
PC:18cfe     Total:10310      MisBP:175   MisRate:1.70%    MPKI:0.00
PC:11e7e     Total:40651      MisBP:179   MisRate:0.44%    MPKI:0.00
PC:12178     Total:414212      MisBP:191   MisRate:0.05%    MPKI:0.00
PC:14a5a     Total:160234      MisBP:221   MisRate:0.14%    MPKI:0.00
PC:11e18     Total:2507      MisBP:239   MisRate:9.53%    MPKI:0.00
PC:18d84     Total:1855      MisBP:257   MisRate:13.85%    MPKI:0.00
PC:1207e     Total:82869      MisBP:282   MisRate:0.34%    MPKI:0.00
PC:18b5a     Total:2723      MisBP:312   MisRate:11.46%    MPKI:0.00
PC:120ce     Total:66713      MisBP:320   MisRate:0.48%    MPKI:0.00
PC:11e60     Total:82263      MisBP:330   MisRate:0.40%    MPKI:0.00
PC:121ae     Total:68997      MisBP:349   MisRate:0.51%    MPKI:0.00
PC:18c88     Total:8955      MisBP:404   MisRate:4.51%    MPKI:0.00
PC:18d68     Total:2411      MisBP:416   MisRate:17.25%    MPKI:0.00
PC:18bce     Total:3660      MisBP:447   MisRate:12.21%    MPKI:0.00
PC:18c5a     Total:8622      MisBP:866   MisRate:10.04%    MPKI:0.00
PC:18bec     Total:9362      MisBP:878   MisRate:9.38%    MPKI:0.00
PC:16752     Total:4339      MisBP:911   MisRate:21.00%    MPKI:0.00
PC:123d8     Total:48592      MisBP:932   MisRate:1.92%    MPKI:0.00
PC:11ada     Total:49519      MisBP:948   MisRate:1.91%    MPKI:0.00
PC:16740     Total:5207      MisBP:954   MisRate:18.32%    MPKI:0.00
PC:11aee     Total:38835      MisBP:1044   MisRate:2.69%    MPKI:0.00
PC:165e6     Total:5824      MisBP:1045   MisRate:17.94%    MPKI:0.00
PC:18cd0     Total:10024      MisBP:1253   MisRate:12.50%    MPKI:0.00
PC:165f8     Total:10246      MisBP:1326   MisRate:12.94%    MPKI:0.00
PC:11ac4     Total:64745      MisBP:1494   MisRate:2.31%    MPKI:0.00
PC:18dd0     Total:48175      MisBP:1670   MisRate:3.47%    MPKI:0.01
PC:150d8     Total:28033      MisBP:1708   MisRate:6.09%    MPKI:0.01
PC:13086     Total:711041      MisBP:2079   MisRate:0.29%    MPKI:0.01
PC:11f64     Total:28265      MisBP:2197   MisRate:7.77%    MPKI:0.01
PC:124aa     Total:21497      MisBP:2303   MisRate:10.71%    MPKI:0.01
PC:12d8a     Total:38882      MisBP:2574   MisRate:6.62%    MPKI:0.01
PC:123f8     Total:19750      MisBP:2840   MisRate:14.38%    MPKI:0.01
PC:12430     Total:18170      MisBP:3087   MisRate:16.99%    MPKI:0.01
PC:12476     Total:18853      MisBP:3394   MisRate:18.00%    MPKI:0.01
PC:11aae     Total:100206      MisBP:3562   MisRate:3.55%    MPKI:0.01
PC:11e6a     Total:82208      MisBP:3998   MisRate:4.86%    MPKI:0.01
PC:11ae6     Total:48449      MisBP:4911   MisRate:10.14%    MPKI:0.02
PC:11a98     Total:153335      MisBP:5436   MisRate:3.55%    MPKI:0.02
PC:12242     Total:43250      MisBP:5731   MisRate:13.25%    MPKI:0.02
PC:11ad0     Total:61240      MisBP:5754   MisRate:9.40%    MPKI:0.02
PC:150e2     Total:209719      MisBP:6195   MisRate:2.95%    MPKI:0.02
PC:11f08     Total:31712      MisBP:6260   MisRate:19.74%    MPKI:0.02
PC:12030     Total:1149606      MisBP:8046   MisRate:0.70%    MPKI:0.03
PC:1546e     Total:98338      MisBP:8571   MisRate:8.72%    MPKI:0.03
PC:15402     Total:111553      MisBP:8582   MisRate:7.69%    MPKI:0.03
PC:12454     Total:185320      MisBP:9382   MisRate:5.06%    MPKI:0.03
PC:1508e     Total:216655      MisBP:9743   MisRate:4.50%    MPKI:0.03
PC:11a82     Total:230581      MisBP:10543   MisRate:4.57%    MPKI:0.03
PC:12418     Total:375294      MisBP:11626   MisRate:3.10%    MPKI:0.04
PC:11ec8     Total:66316      MisBP:11983   MisRate:18.07%    MPKI:0.04
PC:11a6c     Total:401439      MisBP:12272   MisRate:3.06%    MPKI:0.04
PC:11aba     Total:88631      MisBP:12649   MisRate:14.27%    MPKI:0.04
PC:122f2     Total:687749      MisBP:13261   MisRate:1.93%    MPKI:0.04
PC:123ba     Total:540943      MisBP:13398   MisRate:2.48%    MPKI:0.04
PC:130c2     Total:716891      MisBP:14366   MisRate:2.00%    MPKI:0.05
PC:1508c     Total:783921      MisBP:15004   MisRate:1.91%    MPKI:0.05
PC:12102     Total:482017      MisBP:15046   MisRate:3.12%    MPKI:0.05
PC:1215e     Total:405047      MisBP:15164   MisRate:3.74%    MPKI:0.05
PC:11a4a     Total:634340      MisBP:17691   MisRate:2.79%    MPKI:0.06
PC:123c4     Total:69257      MisBP:18106   MisRate:26.14%    MPKI:0.06
PC:11f5c     Total:4111177      MisBP:18330   MisRate:0.45%    MPKI:0.06
PC:11aa4     Total:124976      MisBP:19009   MisRate:15.21%    MPKI:0.06
PC:1234a     Total:616710      MisBP:20504   MisRate:3.32%    MPKI:0.07
PC:1236c     Total:712985      MisBP:20601   MisRate:2.89%    MPKI:0.07
PC:122be     Total:660719      MisBP:21626   MisRate:3.27%    MPKI:0.07
PC:12314     Total:751187      MisBP:22294   MisRate:2.97%    MPKI:0.07
PC:11a8e     Total:198714      MisBP:25353   MisRate:12.76%    MPKI:0.08
PC:11a78     Total:290587      MisBP:39599   MisRate:13.63%    MPKI:0.13
PC:12250     Total:253984      MisBP:39647   MisRate:15.61%    MPKI:0.13
PC:11a28     Total:810025      MisBP:45430   MisRate:5.61%    MPKI:0.15
PC:119e4     Total:1806323      MisBP:47954   MisRate:2.65%    MPKI:0.15
PC:11a20     Total:897826      MisBP:48061   MisRate:5.35%    MPKI:0.16
PC:119f4     Total:1443531      MisBP:48961   MisRate:3.39%    MPKI:0.16
PC:11a5e     Total:480748      MisBP:49011   MisRate:10.19%    MPKI:0.16
PC:119d4     Total:2156024      MisBP:50314   MisRate:2.33%    MPKI:0.16
PC:119fc     Total:1310831      MisBP:53923   MisRate:4.11%    MPKI:0.17
PC:12014     Total:923061      MisBP:55651   MisRate:6.03%    MPKI:0.18
PC:119ec     Total:1653213      MisBP:56166   MisRate:3.40%    MPKI:0.18
PC:11a04     Total:1148667      MisBP:58305   MisRate:5.08%    MPKI:0.19
PC:119dc     Total:2023364      MisBP:58627   MisRate:2.90%    MPKI:0.19
PC:11a3a     Total:749009      MisBP:63602   MisRate:8.49%    MPKI:0.21
PC:12042     Total:942172      MisBP:63638   MisRate:6.75%    MPKI:0.21
PC:14a2e     Total:329990      MisBP:69558   MisRate:21.08%    MPKI:0.22
PC:11a0c     Total:1027023      MisBP:70668   MisRate:6.88%    MPKI:0.23
PC:119cc     Total:2610746      MisBP:74421   MisRate:2.85%    MPKI:0.24
PC:119b6     Total:3403691      MisBP:119239   MisRate:3.50%    MPKI:0.38
PC:150f4     Total:3077749      MisBP:119969   MisRate:3.90%    MPKI:0.39
PC:12040     Total:1280965      MisBP:124881   MisRate:9.75%    MPKI:0.40
PC:11f40     Total:3964039      MisBP:127010   MisRate:3.20%    MPKI:0.41
PC:1238c     Total:1065786      MisBP:182918   MisRate:17.16%    MPKI:0.59
PC:12334     Total:1148369      MisBP:192922   MisRate:16.80%    MPKI:0.62
PC:122dc     Total:1076028      MisBP:217206   MisRate:20.19%    MPKI:0.70
Totfetch:495406977  TotInsts:310000000  TotMis : inf%   MPKI : 8.17
=============finish sim!!!!!!=============
Done running SimPoint!
