Global frequency set at 1000000000000 ticks per second
 Register [printBranch()] ExitCallback !!!!!!! 
gem5 Simulator System.  https://www.gem5.org
gem5 is copyrighted software; use the --copyright option for details.

gem5 version 22.0.0.2
gem5 compiled Sep  7 2022 00:42:18
gem5 started Sep  7 2022 03:34:50
gem5 executing on a100, pid 2764616
command line: /data/zxf/gem5/gem5-prof/build/ARM/gem5.fast --outdir=/data/zxf/checkpoint/spec2006/445.gobmk/prof/gobmk_ckp_7 /data/zxf/gem5/gem5-prof/configs/example/se.py --cpu-type O3CPU --cpu-clock 1GHz --num-cpu 1 --caches --l2cache --l1i_size 32kB --l1d_size 32kB --l2_size 1MB --l1i_assoc 8 --l1d_assoc 8 --l2_assoc 16 --cacheline_size 64 --mem-type DDR3_2133_8x8 --mem-size 16GB --l1d-hwp-type=BOPPrefetcher --restore-simpoint-checkpoint -r 7 --checkpoint-dir /data/zxf/checkpoint/spec2006/445.gobmk/ckpt -i 13x13.tst -c gobmk_base.gcc41-64bit -o '--quiet --mode gtp'

info: Standard input is not a terminal, disabling listeners.
Resuming from /data/zxf/checkpoint/spec2006/445.gobmk/ckpt/cpt.simpoint_06_inst_127490000000_weight_0.119469_interval_300000000_warmup_10000000
Resuming from SimPoint #6, start_inst:127490000000, weight:0.119469, interval:300000000, warmup:10000000
Switch at curTick count:10000
Switched CPUS @ tick 86319159957000
[(<m5.objects.ArmCPU.ArmAtomicSimpleCPU object at 0x7fc083d35bb0>, <m5.objects.ArmCPU.ArmO3CPU object at 0x7fc083d4ee20>)]
switching cpus



+++++++++++++++++++++++++zxf print simpoint+++++++++++++++++++++++++++
Warmed up! Dumping and resetting stats!


=============start sim!!!!!!=============
PC:16b34     Total:8054      MisBP:0   MisRate:0.00%    MPKI:0.00
PC:3fc38     Total:3      MisBP:0   MisRate:0.00%    MPKI:0.00
PC:16b48     Total:7143      MisBP:0   MisRate:0.00%    MPKI:0.00
PC:16b46     Total:7144      MisBP:0   MisRate:0.00%    MPKI:0.00
PC:16b44     Total:6474      MisBP:0   MisRate:0.00%    MPKI:0.00
PC:3fc30     Total:3      MisBP:0   MisRate:0.00%    MPKI:0.00
PC:16b42     Total:6474      MisBP:0   MisRate:0.00%    MPKI:0.00
PC:3fc2e     Total:3      MisBP:0   MisRate:0.00%    MPKI:0.00
PC:16b40     Total:6474      MisBP:0   MisRate:0.00%    MPKI:0.00
PC:16b3c     Total:8054      MisBP:0   MisRate:0.00%    MPKI:0.00
PC:16b38     Total:8054      MisBP:0   MisRate:0.00%    MPKI:0.00
PC:16b4c     Total:7143      MisBP:0   MisRate:0.00%    MPKI:0.00
PC:3fc20     Total:3      MisBP:0   MisRate:0.00%    MPKI:0.00
PC:16b32     Total:8131      MisBP:0   MisRate:0.00%    MPKI:0.00
PC:16b2e     Total:8147      MisBP:0   MisRate:0.00%    MPKI:0.00
PC:16b2a     Total:8155      MisBP:0   MisRate:0.00%    MPKI:0.00
PC:3fc16     Total:5      MisBP:0   MisRate:0.00%    MPKI:0.00
PC:16b26     Total:8229      MisBP:0   MisRate:0.00%    MPKI:0.00
PC:3fc12     Total:7      MisBP:0   MisRate:0.00%    MPKI:0.00
PC:16b22     Total:8244      MisBP:0   MisRate:0.00%    MPKI:0.00
PC:16b20     Total:8248      MisBP:0   MisRate:0.00%    MPKI:0.00
PC:16b1e     Total:8248      MisBP:0   MisRate:0.00%    MPKI:0.00
PC:16b5e     Total:7047      MisBP:0   MisRate:0.00%    MPKI:0.00
PC:3fc5e     Total:2      MisBP:0   MisRate:0.00%    MPKI:0.00
PC:16b6e     Total:7060      MisBP:0   MisRate:0.00%    MPKI:0.00
PC:16b6c     Total:7286      MisBP:0   MisRate:0.00%    MPKI:0.00
PC:3fc58     Total:2      MisBP:0   MisRate:0.00%    MPKI:0.00
PC:16b6a     Total:7286      MisBP:0   MisRate:0.00%    MPKI:0.00
PC:3fc56     Total:2      MisBP:0   MisRate:0.00%    MPKI:0.00
PC:16b66     Total:7047      MisBP:0   MisRate:0.00%    MPKI:0.00
PC:3fc52     Total:3      MisBP:0   MisRate:0.00%    MPKI:0.00
PC:16b62     Total:7047      MisBP:0   MisRate:0.00%    MPKI:0.00
PC:3fc4e     Total:3      MisBP:0   MisRate:0.00%    MPKI:0.00
PC:16b1a     Total:8248      MisBP:0   MisRate:0.00%    MPKI:0.00
PC:16b5c     Total:7047      MisBP:0   MisRate:0.00%    MPKI:0.00
PC:3fc48     Total:2      MisBP:0   MisRate:0.00%    MPKI:0.00
PC:16b5a     Total:6714      MisBP:0   MisRate:0.00%    MPKI:0.00
PC:3fc46     Total:2      MisBP:0   MisRate:0.00%    MPKI:0.00
PC:16b56     Total:6714      MisBP:0   MisRate:0.00%    MPKI:0.00
PC:3fc42     Total:2      MisBP:0   MisRate:0.00%    MPKI:0.00
PC:16b52     Total:7143      MisBP:0   MisRate:0.00%    MPKI:0.00
PC:3fc3e     Total:3      MisBP:0   MisRate:0.00%    MPKI:0.00
PC:16b4e     Total:7143      MisBP:0   MisRate:0.00%    MPKI:0.00
PC:3efce     Total:7      MisBP:0   MisRate:0.00%    MPKI:0.00
PC:3efe0     Total:7      MisBP:0   MisRate:0.00%    MPKI:0.00
PC:15ef4     Total:37238      MisBP:0   MisRate:0.00%    MPKI:0.00
PC:3efdc     Total:7      MisBP:0   MisRate:0.00%    MPKI:0.00
PC:3efda     Total:7      MisBP:0   MisRate:0.00%    MPKI:0.00
PC:15eee     Total:39650      MisBP:0   MisRate:0.00%    MPKI:0.00
PC:3efd8     Total:7      MisBP:0   MisRate:0.00%    MPKI:0.00
PC:15eea     Total:39650      MisBP:0   MisRate:0.00%    MPKI:0.00
PC:3efd4     Total:7      MisBP:0   MisRate:0.00%    MPKI:0.00
PC:3efd2     Total:7      MisBP:0   MisRate:0.00%    MPKI:0.00
PC:15ee6     Total:39650      MisBP:0   MisRate:0.00%    MPKI:0.00
PC:15ef8     Total:37236      MisBP:0   MisRate:0.00%    MPKI:0.00
PC:15ee2     Total:39654      MisBP:0   MisRate:0.00%    MPKI:0.00
PC:3efca     Total:6      MisBP:0   MisRate:0.00%    MPKI:0.00
PC:3efc6     Total:1      MisBP:0   MisRate:0.00%    MPKI:0.00
PC:1673c     Total:1      MisBP:0   MisRate:0.00%    MPKI:0.00
PC:3efc4     Total:1      MisBP:0   MisRate:0.00%    MPKI:0.00
PC:15ed8     Total:40373      MisBP:0   MisRate:0.00%    MPKI:0.00
PC:16738     Total:3      MisBP:0   MisRate:0.00%    MPKI:0.00
PC:3efc0     Total:3      MisBP:0   MisRate:0.00%    MPKI:0.00
PC:15ed4     Total:40373      MisBP:0   MisRate:0.00%    MPKI:0.00
PC:16b04     Total:7335      MisBP:0   MisRate:0.00%    MPKI:0.00
PC:16b18     Total:8259      MisBP:0   MisRate:0.00%    MPKI:0.00
PC:16b16     Total:7875      MisBP:0   MisRate:0.00%    MPKI:0.00
PC:16b14     Total:7895      MisBP:0   MisRate:0.00%    MPKI:0.00
PC:16b12     Total:8020      MisBP:0   MisRate:0.00%    MPKI:0.00
PC:16b10     Total:7997      MisBP:0   MisRate:0.00%    MPKI:0.00
PC:3fbfc     Total:1      MisBP:0   MisRate:0.00%    MPKI:0.00
PC:16b0c     Total:7840      MisBP:0   MisRate:0.00%    MPKI:0.00
PC:16b08     Total:7840      MisBP:0   MisRate:0.00%    MPKI:0.00
PC:16b06     Total:7840      MisBP:0   MisRate:0.00%    MPKI:0.00
PC:3fbf2     Total:8      MisBP:0   MisRate:0.00%    MPKI:0.00
PC:16b72     Total:7060      MisBP:0   MisRate:0.00%    MPKI:0.00
PC:3fbf0     Total:8      MisBP:0   MisRate:0.00%    MPKI:0.00
PC:16b02     Total:7335      MisBP:0   MisRate:0.00%    MPKI:0.00
PC:3fbee     Total:8      MisBP:0   MisRate:0.00%    MPKI:0.00
PC:16b00     Total:7147      MisBP:0   MisRate:0.00%    MPKI:0.00
PC:3fbec     Total:8      MisBP:0   MisRate:0.00%    MPKI:0.00
PC:3f91a     Total:32      MisBP:0   MisRate:0.00%    MPKI:0.00
PC:3f916     Total:32      MisBP:0   MisRate:0.00%    MPKI:0.00
PC:1682a     Total:3754      MisBP:0   MisRate:0.00%    MPKI:0.00
PC:3efe4     Total:7      MisBP:0   MisRate:0.00%    MPKI:0.00
PC:47a14     Total:35      MisBP:0   MisRate:0.00%    MPKI:0.00
PC:3d820     Total:1      MisBP:0   MisRate:0.00%    MPKI:0.00
PC:47a42     Total:39      MisBP:0   MisRate:0.00%    MPKI:0.00
PC:47a36     Total:6      MisBP:0   MisRate:0.00%    MPKI:0.00
PC:47a30     Total:41      MisBP:0   MisRate:0.00%    MPKI:0.00
PC:47a2a     Total:41      MisBP:0   MisRate:0.00%    MPKI:0.00
PC:3d800     Total:43475      MisBP:0   MisRate:0.00%    MPKI:0.00
PC:47a22     Total:64      MisBP:0   MisRate:0.00%    MPKI:0.00
PC:3d7f6     Total:32316      MisBP:0   MisRate:0.00%    MPKI:0.00
PC:47a18     Total:33      MisBP:0   MisRate:0.00%    MPKI:0.00
PC:3d7f2     Total:32316      MisBP:0   MisRate:0.00%    MPKI:0.00
PC:47a4c     Total:39      MisBP:0   MisRate:0.00%    MPKI:0.00
PC:47a0e     Total:35      MisBP:0   MisRate:0.00%    MPKI:0.00
PC:3d7e2     Total:3904      MisBP:0   MisRate:0.00%    MPKI:0.00
PC:47a04     Total:35      MisBP:0   MisRate:0.00%    MPKI:0.00
PC:47a00     Total:35      MisBP:0   MisRate:0.00%    MPKI:0.00
PC:3d7da     Total:30188      MisBP:0   MisRate:0.00%    MPKI:0.00
PC:479fc     Total:42      MisBP:0   MisRate:0.00%    MPKI:0.00
PC:3d7d6     Total:30188      MisBP:0   MisRate:0.00%    MPKI:0.00
PC:479f8     Total:42      MisBP:0   MisRate:0.00%    MPKI:0.00
PC:3d7d2     Total:30188      MisBP:0   MisRate:0.00%    MPKI:0.00
PC:479f4     Total:48      MisBP:0   MisRate:0.00%    MPKI:0.00
PC:47a7e     Total:45      MisBP:0   MisRate:0.00%    MPKI:0.00
PC:47798     Total:962      MisBP:0   MisRate:0.00%    MPKI:0.00
PC:3d898     Total:4368      MisBP:0   MisRate:0.00%    MPKI:0.00
PC:47aba     Total:67      MisBP:0   MisRate:0.00%    MPKI:0.00
PC:47aac     Total:45      MisBP:0   MisRate:0.00%    MPKI:0.00
PC:3d886     Total:47402      MisBP:0   MisRate:0.00%    MPKI:0.00
PC:47aa8     Total:45      MisBP:0   MisRate:0.00%    MPKI:0.00
PC:47a9a     Total:45      MisBP:0   MisRate:0.00%    MPKI:0.00
PC:47a96     Total:45      MisBP:0   MisRate:0.00%    MPKI:0.00
PC:47a82     Total:45      MisBP:0   MisRate:0.00%    MPKI:0.00
PC:3d85c     Total:32227      MisBP:0   MisRate:0.00%    MPKI:0.00
PC:3d7c2     Total:532      MisBP:0   MisRate:0.00%    MPKI:0.00
PC:3d858     Total:37621      MisBP:0   MisRate:0.00%    MPKI:0.00
PC:47a7a     Total:67      MisBP:0   MisRate:0.00%    MPKI:0.00
PC:3d84e     Total:37622      MisBP:0   MisRate:0.00%    MPKI:0.00
PC:47a70     Total:67      MisBP:0   MisRate:0.00%    MPKI:0.00
PC:3d844     Total:52014      MisBP:0   MisRate:0.00%    MPKI:0.00
PC:47a66     Total:67      MisBP:0   MisRate:0.00%    MPKI:0.00
PC:3d836     Total:96385      MisBP:0   MisRate:0.00%    MPKI:0.00
PC:47a58     Total:68      MisBP:0   MisRate:0.00%    MPKI:0.00
PC:3d82a     Total:53866      MisBP:0   MisRate:0.00%    MPKI:0.00
PC:40e00     Total:4      MisBP:0   MisRate:0.00%    MPKI:0.00
PC:15fb2     Total:25966      MisBP:0   MisRate:0.00%    MPKI:0.00
PC:3f094     Total:8      MisBP:0   MisRate:0.00%    MPKI:0.00
PC:3f090     Total:8      MisBP:0   MisRate:0.00%    MPKI:0.00
PC:3f080     Total:8      MisBP:0   MisRate:0.00%    MPKI:0.00
PC:3f076     Total:8      MisBP:0   MisRate:0.00%    MPKI:0.00
PC:40e0e     Total:4      MisBP:0   MisRate:0.00%    MPKI:0.00
PC:40e0a     Total:4      MisBP:0   MisRate:0.00%    MPKI:0.00
PC:40e08     Total:4      MisBP:0   MisRate:0.00%    MPKI:0.00
PC:40e04     Total:4      MisBP:0   MisRate:0.00%    MPKI:0.00
PC:40e02     Total:4      MisBP:0   MisRate:0.00%    MPKI:0.00
PC:3f09e     Total:8      MisBP:0   MisRate:0.00%    MPKI:0.00
PC:40c40     Total:1      MisBP:0   MisRate:0.00%    MPKI:0.00
PC:16b7e     Total:7790      MisBP:0   MisRate:0.00%    MPKI:0.00
PC:3fc6a     Total:2      MisBP:0   MisRate:0.00%    MPKI:0.00
PC:16b7a     Total:8155      MisBP:0   MisRate:0.00%    MPKI:0.00
PC:3fc66     Total:2      MisBP:0   MisRate:0.00%    MPKI:0.00
PC:16b78     Total:8155      MisBP:0   MisRate:0.00%    MPKI:0.00
PC:3fc64     Total:2      MisBP:0   MisRate:0.00%    MPKI:0.00
PC:16b76     Total:7612      MisBP:0   MisRate:0.00%    MPKI:0.00
PC:3fc62     Total:2      MisBP:0   MisRate:0.00%    MPKI:0.00
PC:3f826     Total:5      MisBP:0   MisRate:0.00%    MPKI:0.00
PC:479e4     Total:48      MisBP:0   MisRate:0.00%    MPKI:0.00
PC:3f842     Total:1      MisBP:0   MisRate:0.00%    MPKI:0.00
PC:16756     Total:89408      MisBP:0   MisRate:0.00%    MPKI:0.00
PC:49a64     Total:61      MisBP:0   MisRate:0.00%    MPKI:0.00
PC:3f83c     Total:2      MisBP:0   MisRate:0.00%    MPKI:0.00
PC:49a5e     Total:35      MisBP:0   MisRate:0.00%    MPKI:0.00
PC:49a5a     Total:35      MisBP:0   MisRate:0.00%    MPKI:0.00
PC:49a56     Total:35      MisBP:0   MisRate:0.00%    MPKI:0.00
PC:3f82c     Total:4      MisBP:0   MisRate:0.00%    MPKI:0.00
PC:49a4e     Total:35      MisBP:0   MisRate:0.00%    MPKI:0.00
PC:3efbe     Total:5      MisBP:0   MisRate:0.00%    MPKI:0.00
PC:49a48     Total:36      MisBP:0   MisRate:0.00%    MPKI:0.00
PC:3f822     Total:5      MisBP:0   MisRate:0.00%    MPKI:0.00
PC:49a44     Total:144      MisBP:0   MisRate:0.00%    MPKI:0.00
PC:3f0bc     Total:59      MisBP:0   MisRate:0.00%    MPKI:0.00
PC:15fd0     Total:6141      MisBP:0   MisRate:0.00%    MPKI:0.00
PC:3f0b6     Total:27      MisBP:0   MisRate:0.00%    MPKI:0.00
PC:3f0b0     Total:23      MisBP:0   MisRate:0.00%    MPKI:0.00
PC:15fc4     Total:6234      MisBP:0   MisRate:0.00%    MPKI:0.00
PC:3f0aa     Total:23      MisBP:0   MisRate:0.00%    MPKI:0.00
PC:3eed6     Total:8      MisBP:0   MisRate:0.00%    MPKI:0.00
PC:15e0a     Total:32098      MisBP:0   MisRate:0.00%    MPKI:0.00
PC:3eef2     Total:124      MisBP:0   MisRate:0.00%    MPKI:0.00
PC:3eeec     Total:7      MisBP:0   MisRate:0.00%    MPKI:0.00
PC:15e00     Total:32101      MisBP:0   MisRate:0.00%    MPKI:0.00
PC:3eee8     Total:8      MisBP:0   MisRate:0.00%    MPKI:0.00
PC:3eee2     Total:9      MisBP:0   MisRate:0.00%    MPKI:0.00
PC:15df6     Total:36059      MisBP:0   MisRate:0.00%    MPKI:0.00
PC:3eede     Total:5      MisBP:0   MisRate:0.00%    MPKI:0.00
PC:3eeda     Total:5      MisBP:0   MisRate:0.00%    MPKI:0.00
PC:15dee     Total:35391      MisBP:0   MisRate:0.00%    MPKI:0.00
PC:3eef6     Total:62      MisBP:0   MisRate:0.00%    MPKI:0.00
PC:15dea     Total:35394      MisBP:0   MisRate:0.00%    MPKI:0.00
PC:3eece     Total:9      MisBP:0   MisRate:0.00%    MPKI:0.00
PC:3eeca     Total:8      MisBP:0   MisRate:0.00%    MPKI:0.00
PC:15dde     Total:36263      MisBP:0   MisRate:0.00%    MPKI:0.00
PC:3eec6     Total:8      MisBP:0   MisRate:0.00%    MPKI:0.00
PC:15dda     Total:36263      MisBP:0   MisRate:0.00%    MPKI:0.00
PC:3eebc     Total:9      MisBP:0   MisRate:0.00%    MPKI:0.00
PC:15dd0     Total:36263      MisBP:0   MisRate:0.00%    MPKI:0.00
PC:3eeb8     Total:9      MisBP:0   MisRate:0.00%    MPKI:0.00
PC:15dcc     Total:36263      MisBP:0   MisRate:0.00%    MPKI:0.00
PC:3ef14     Total:5      MisBP:0   MisRate:0.00%    MPKI:0.00
PC:3ef4a     Total:10      MisBP:0   MisRate:0.00%    MPKI:0.00
PC:15e5e     Total:41321      MisBP:0   MisRate:0.00%    MPKI:0.00
PC:3ef46     Total:10      MisBP:0   MisRate:0.00%    MPKI:0.00
PC:15e5a     Total:40801      MisBP:0   MisRate:0.00%    MPKI:0.00
PC:3ef42     Total:10      MisBP:0   MisRate:0.00%    MPKI:0.00
PC:3ef3c     Total:14      MisBP:0   MisRate:0.00%    MPKI:0.00
PC:3ef24     Total:13      MisBP:0   MisRate:0.00%    MPKI:0.00
PC:3ef1c     Total:15      MisBP:0   MisRate:0.00%    MPKI:0.00
PC:3ef18     Total:5      MisBP:0   MisRate:0.00%    MPKI:0.00
PC:15e2c     Total:30501      MisBP:0   MisRate:0.00%    MPKI:0.00
PC:15dc8     Total:36263      MisBP:0   MisRate:0.00%    MPKI:0.00
PC:15e28     Total:30508      MisBP:0   MisRate:0.00%    MPKI:0.00
PC:3ef0e     Total:5      MisBP:0   MisRate:0.00%    MPKI:0.00
PC:15e22     Total:30509      MisBP:0   MisRate:0.00%    MPKI:0.00
PC:3ef00     Total:5      MisBP:0   MisRate:0.00%    MPKI:0.00
PC:15e14     Total:32100      MisBP:0   MisRate:0.00%    MPKI:0.00
PC:3d122     Total:483      MisBP:0   MisRate:0.00%    MPKI:0.00
PC:3d116     Total:588      MisBP:0   MisRate:0.00%    MPKI:0.00
PC:3d108     Total:590      MisBP:0   MisRate:0.00%    MPKI:0.00
PC:3eefc     Total:66      MisBP:0   MisRate:0.00%    MPKI:0.00
PC:16a40     Total:6799      MisBP:0   MisRate:0.00%    MPKI:0.00
PC:16a50     Total:6799      MisBP:0   MisRate:0.00%    MPKI:0.00
PC:3fb3a     Total:6      MisBP:0   MisRate:0.00%    MPKI:0.00
PC:3fb36     Total:6      MisBP:0   MisRate:0.00%    MPKI:0.00
PC:16a4a     Total:6799      MisBP:0   MisRate:0.00%    MPKI:0.00
PC:3fb34     Total:6      MisBP:0   MisRate:0.00%    MPKI:0.00
PC:16a48     Total:6799      MisBP:0   MisRate:0.00%    MPKI:0.00
PC:3fb30     Total:6      MisBP:0   MisRate:0.00%    MPKI:0.00
PC:16a44     Total:6799      MisBP:0   MisRate:0.00%    MPKI:0.00
PC:3fb2e     Total:6      MisBP:0   MisRate:0.00%    MPKI:0.00
PC:3fb2c     Total:6      MisBP:0   MisRate:0.00%    MPKI:0.00
PC:3fb3c     Total:12      MisBP:0   MisRate:0.00%    MPKI:0.00
PC:3fb2a     Total:6      MisBP:0   MisRate:0.00%    MPKI:0.00
PC:16a3e     Total:8426      MisBP:0   MisRate:0.00%    MPKI:0.00
PC:3fb26     Total:6      MisBP:0   MisRate:0.00%    MPKI:0.00
PC:16a3a     Total:8969      MisBP:0   MisRate:0.00%    MPKI:0.00
PC:3fb24     Total:6      MisBP:0   MisRate:0.00%    MPKI:0.00
PC:3fb20     Total:31      MisBP:0   MisRate:0.00%    MPKI:0.00
PC:3fb1e     Total:31      MisBP:0   MisRate:0.00%    MPKI:0.00
PC:16a32     Total:8286      MisBP:0   MisRate:0.00%    MPKI:0.00
PC:3fb1c     Total:31      MisBP:0   MisRate:0.00%    MPKI:0.00
PC:3ee8a     Total:9      MisBP:0   MisRate:0.00%    MPKI:0.00
PC:3eeae     Total:10      MisBP:0   MisRate:0.00%    MPKI:0.00
PC:3eea8     Total:11      MisBP:0   MisRate:0.00%    MPKI:0.00
PC:3eea2     Total:9      MisBP:0   MisRate:0.00%    MPKI:0.00
PC:15db6     Total:35174      MisBP:0   MisRate:0.00%    MPKI:0.00
PC:3ee9e     Total:18      MisBP:0   MisRate:0.00%    MPKI:0.00
PC:3ee9a     Total:9      MisBP:0   MisRate:0.00%    MPKI:0.00
PC:3ee96     Total:9      MisBP:0   MisRate:0.00%    MPKI:0.00
PC:15daa     Total:35522      MisBP:0   MisRate:0.00%    MPKI:0.00
PC:3ee92     Total:9      MisBP:0   MisRate:0.00%    MPKI:0.00
PC:15da6     Total:35541      MisBP:0   MisRate:0.00%    MPKI:0.00
PC:15e62     Total:41318      MisBP:0   MisRate:0.00%    MPKI:0.00
PC:15d9e     Total:35541      MisBP:0   MisRate:0.00%    MPKI:0.00
PC:3ee86     Total:9      MisBP:0   MisRate:0.00%    MPKI:0.00
PC:15d9a     Total:35541      MisBP:0   MisRate:0.00%    MPKI:0.00
PC:3ee80     Total:9      MisBP:0   MisRate:0.00%    MPKI:0.00
PC:15d94     Total:6828      MisBP:0   MisRate:0.00%    MPKI:0.00
PC:3ee7a     Total:11      MisBP:0   MisRate:0.00%    MPKI:0.00
PC:15d8e     Total:5169      MisBP:0   MisRate:0.00%    MPKI:0.00
PC:3fb3e     Total:12      MisBP:0   MisRate:0.00%    MPKI:0.00
PC:16a52     Total:6799      MisBP:0   MisRate:0.00%    MPKI:0.00
PC:3f818     Total:6      MisBP:0   MisRate:0.00%    MPKI:0.00
PC:3effc     Total:8      MisBP:0   MisRate:0.00%    MPKI:0.00
PC:3eff0     Total:8      MisBP:0   MisRate:0.00%    MPKI:0.00
PC:3efba     Total:6      MisBP:0   MisRate:0.00%    MPKI:0.00
PC:15ece     Total:40373      MisBP:0   MisRate:0.00%    MPKI:0.00
PC:16730     Total:3      MisBP:0   MisRate:0.00%    MPKI:0.00
PC:3f81c     Total:6      MisBP:0   MisRate:0.00%    MPKI:0.00
PC:3efb8     Total:6      MisBP:0   MisRate:0.00%    MPKI:0.00
PC:3efb6     Total:6      MisBP:0   MisRate:0.00%    MPKI:0.00
PC:15eca     Total:40376      MisBP:0   MisRate:0.00%    MPKI:0.00
PC:1672c     Total:3      MisBP:0   MisRate:0.00%    MPKI:0.00
PC:15f14     Total:31356      MisBP:0   MisRate:0.00%    MPKI:0.00
PC:3efb2     Total:7      MisBP:0   MisRate:0.00%    MPKI:0.00
PC:15ec6     Total:40376      MisBP:0   MisRate:0.00%    MPKI:0.00
PC:16728     Total:3      MisBP:0   MisRate:0.00%    MPKI:0.00
PC:3f814     Total:3      MisBP:0   MisRate:0.00%    MPKI:0.00
PC:3efb0     Total:7      MisBP:0   MisRate:0.00%    MPKI:0.00
PC:16724     Total:3      MisBP:0   MisRate:0.00%    MPKI:0.00
PC:3f810     Total:6      MisBP:0   MisRate:0.00%    MPKI:0.00
PC:3efac     Total:6      MisBP:0   MisRate:0.00%    MPKI:0.00
PC:3efaa     Total:6      MisBP:0   MisRate:0.00%    MPKI:0.00
PC:15f50     Total:4385      MisBP:0   MisRate:0.00%    MPKI:0.00
PC:15ed2     Total:40373      MisBP:0   MisRate:0.00%    MPKI:0.00
PC:16734     Total:3      MisBP:0   MisRate:0.00%    MPKI:0.00
PC:3f820     Total:6      MisBP:0   MisRate:0.00%    MPKI:0.00
PC:3efbc     Total:5      MisBP:0   MisRate:0.00%    MPKI:0.00
PC:3f05a     Total:1      MisBP:0   MisRate:0.00%    MPKI:0.00
PC:3f052     Total:1      MisBP:0   MisRate:0.00%    MPKI:0.00
PC:15f66     Total:9543      MisBP:0   MisRate:0.00%    MPKI:0.00
PC:3f046     Total:4      MisBP:0   MisRate:0.00%    MPKI:0.00
PC:3f042     Total:4      MisBP:0   MisRate:0.00%    MPKI:0.00
PC:3f03c     Total:7      MisBP:0   MisRate:0.00%    MPKI:0.00
PC:15ebe     Total:40376      MisBP:0   MisRate:0.00%    MPKI:0.00
PC:3f034     Total:7      MisBP:0   MisRate:0.00%    MPKI:0.00
PC:3f01c     Total:7      MisBP:0   MisRate:0.00%    MPKI:0.00
PC:15f30     Total:28111      MisBP:0   MisRate:0.00%    MPKI:0.00
PC:3f016     Total:7      MisBP:0   MisRate:0.00%    MPKI:0.00
PC:3f012     Total:7      MisBP:0   MisRate:0.00%    MPKI:0.00
PC:3f00c     Total:7      MisBP:0   MisRate:0.00%    MPKI:0.00
PC:15f20     Total:28137      MisBP:0   MisRate:0.00%    MPKI:0.00
PC:3f006     Total:14      MisBP:0   MisRate:0.00%    MPKI:0.00
PC:3f000     Total:7      MisBP:0   MisRate:0.00%    MPKI:0.00
PC:15e9e     Total:42259      MisBP:0   MisRate:0.00%    MPKI:0.00
PC:3f7fa     Total:16      MisBP:0   MisRate:0.00%    MPKI:0.00
PC:3ef96     Total:2      MisBP:0   MisRate:0.00%    MPKI:0.00
PC:3ef94     Total:2      MisBP:0   MisRate:0.00%    MPKI:0.00
PC:15ea8     Total:43231      MisBP:0   MisRate:0.00%    MPKI:0.00
PC:1670a     Total:3      MisBP:0   MisRate:0.00%    MPKI:0.00
PC:3ef92     Total:2      MisBP:0   MisRate:0.00%    MPKI:0.00
PC:15ea6     Total:43231      MisBP:0   MisRate:0.00%    MPKI:0.00
PC:3ef8e     Total:2      MisBP:0   MisRate:0.00%    MPKI:0.00
PC:15ea2     Total:42259      MisBP:0   MisRate:0.00%    MPKI:0.00
PC:3ef8a     Total:2      MisBP:0   MisRate:0.00%    MPKI:0.00
PC:1670e     Total:3      MisBP:0   MisRate:0.00%    MPKI:0.00
PC:16700     Total:393      MisBP:0   MisRate:0.00%    MPKI:0.00
PC:3f7ec     Total:17      MisBP:0   MisRate:0.00%    MPKI:0.00
PC:3ef88     Total:2      MisBP:0   MisRate:0.00%    MPKI:0.00
PC:3ef74     Total:9      MisBP:0   MisRate:0.00%    MPKI:0.00
PC:3ef70     Total:9      MisBP:0   MisRate:0.00%    MPKI:0.00
PC:15e84     Total:56798      MisBP:0   MisRate:0.00%    MPKI:0.00
PC:3ef60     Total:15      MisBP:0   MisRate:0.00%    MPKI:0.00
PC:15e74     Total:58257      MisBP:0   MisRate:0.00%    MPKI:0.00
PC:3ef4e     Total:10      MisBP:0   MisRate:0.00%    MPKI:0.00
PC:15eb4     Total:84088      MisBP:0   MisRate:0.00%    MPKI:0.00
PC:16720     Total:3      MisBP:0   MisRate:0.00%    MPKI:0.00
PC:3f80c     Total:5      MisBP:0   MisRate:0.00%    MPKI:0.00
PC:3efa8     Total:6      MisBP:0   MisRate:0.00%    MPKI:0.00
PC:15ebc     Total:43692      MisBP:0   MisRate:0.00%    MPKI:0.00
PC:3efa6     Total:6      MisBP:0   MisRate:0.00%    MPKI:0.00
PC:3efa4     Total:6      MisBP:0   MisRate:0.00%    MPKI:0.00
PC:15eb8     Total:42044      MisBP:0   MisRate:0.00%    MPKI:0.00
PC:3efa2     Total:2      MisBP:0   MisRate:0.00%    MPKI:0.00
PC:16718     Total:3      MisBP:0   MisRate:0.00%    MPKI:0.00
PC:3efa0     Total:2      MisBP:0   MisRate:0.00%    MPKI:0.00
PC:3d576     Total:42780      MisBP:0   MisRate:0.00%    MPKI:0.00
PC:16716     Total:3      MisBP:0   MisRate:0.00%    MPKI:0.00
PC:3f802     Total:5      MisBP:0   MisRate:0.00%    MPKI:0.00
PC:3ef9e     Total:2      MisBP:0   MisRate:0.00%    MPKI:0.00
PC:16712     Total:3      MisBP:0   MisRate:0.00%    MPKI:0.00
PC:3f7fe     Total:5      MisBP:0   MisRate:0.00%    MPKI:0.00
PC:3ef9a     Total:2      MisBP:0   MisRate:0.00%    MPKI:0.00
PC:15eae     Total:43230      MisBP:0   MisRate:0.00%    MPKI:0.00
PC:3ef98     Total:2      MisBP:0   MisRate:0.00%    MPKI:0.00
PC:15eac     Total:43231      MisBP:0   MisRate:0.00%    MPKI:0.00
PC:4782c     Total:11      MisBP:0   MisRate:0.00%    MPKI:0.00
PC:47838     Total:73      MisBP:0   MisRate:0.00%    MPKI:0.00
PC:3d614     Total:20944      MisBP:0   MisRate:0.00%    MPKI:0.00
PC:51a58     Total:3526      MisBP:0   MisRate:0.00%    MPKI:0.00
PC:47836     Total:73      MisBP:0   MisRate:0.00%    MPKI:0.00
PC:3d610     Total:20944      MisBP:0   MisRate:0.00%    MPKI:0.00
PC:47832     Total:73      MisBP:0   MisRate:0.00%    MPKI:0.00
PC:3d60c     Total:20944      MisBP:0   MisRate:0.00%    MPKI:0.00
PC:51a50     Total:16      MisBP:0   MisRate:0.00%    MPKI:0.00
PC:3d1da     Total:73      MisBP:0   MisRate:0.00%    MPKI:0.00
PC:4782e     Total:11      MisBP:0   MisRate:0.00%    MPKI:0.00
PC:3d616     Total:20944      MisBP:0   MisRate:0.00%    MPKI:0.00
PC:51a4c     Total:16      MisBP:0   MisRate:0.00%    MPKI:0.00
PC:4782a     Total:11      MisBP:0   MisRate:0.00%    MPKI:0.00
PC:3d606     Total:43212      MisBP:0   MisRate:0.00%    MPKI:0.00
PC:51a4a     Total:16      MisBP:0   MisRate:0.00%    MPKI:0.00
PC:3d1d4     Total:75      MisBP:0   MisRate:0.00%    MPKI:0.00
PC:47828     Total:11      MisBP:0   MisRate:0.00%    MPKI:0.00
PC:51a48     Total:16      MisBP:0   MisRate:0.00%    MPKI:0.00
PC:47826     Total:11      MisBP:0   MisRate:0.00%    MPKI:0.00
PC:3d602     Total:44581      MisBP:0   MisRate:0.00%    MPKI:0.00
PC:51a46     Total:16      MisBP:0   MisRate:0.00%    MPKI:0.00
PC:4784c     Total:62      MisBP:0   MisRate:0.00%    MPKI:0.00
PC:51a7a     Total:9582      MisBP:0   MisRate:0.00%    MPKI:0.00
PC:3d204     Total:3      MisBP:0   MisRate:0.00%    MPKI:0.00
PC:47858     Total:85      MisBP:0   MisRate:0.00%    MPKI:0.00
PC:3d62e     Total:1399      MisBP:0   MisRate:0.00%    MPKI:0.00
PC:51a72     Total:3986      MisBP:0   MisRate:0.00%    MPKI:0.00
PC:3d1fc     Total:23      MisBP:0   MisRate:0.00%    MPKI:0.00
PC:47850     Total:62      MisBP:0   MisRate:0.00%    MPKI:0.00
PC:3d62a     Total:1402      MisBP:0   MisRate:0.00%    MPKI:0.00
PC:51a6e     Total:7642      MisBP:0   MisRate:0.00%    MPKI:0.00
PC:3d1f8     Total:23      MisBP:0   MisRate:0.00%    MPKI:0.00
PC:3d1d0     Total:68      MisBP:0   MisRate:0.00%    MPKI:0.00
PC:51a6a     Total:3345      MisBP:0   MisRate:0.00%    MPKI:0.00
PC:3d1f4     Total:29      MisBP:0   MisRate:0.00%    MPKI:0.00
PC:51a66     Total:3388      MisBP:0   MisRate:0.00%    MPKI:0.00
PC:3d1f0     Total:29      MisBP:0   MisRate:0.00%    MPKI:0.00
PC:47844     Total:62      MisBP:0   MisRate:0.00%    MPKI:0.00
PC:3d620     Total:25140      MisBP:0   MisRate:0.00%    MPKI:0.00
PC:47840     Total:66      MisBP:0   MisRate:0.00%    MPKI:0.00
PC:3d61a     Total:40146      MisBP:0   MisRate:0.00%    MPKI:0.00
PC:4783c     Total:73      MisBP:0   MisRate:0.00%    MPKI:0.00
PC:3a43e     Total:1      MisBP:0   MisRate:0.00%    MPKI:0.00
PC:3d5e4     Total:54993      MisBP:0   MisRate:0.00%    MPKI:0.00
PC:47806     Total:11      MisBP:0   MisRate:0.00%    MPKI:0.00
PC:51a26     Total:13011      MisBP:0   MisRate:0.00%    MPKI:0.00
PC:47804     Total:11      MisBP:0   MisRate:0.00%    MPKI:0.00
PC:3d5e0     Total:54994      MisBP:0   MisRate:0.00%    MPKI:0.00
PC:47802     Total:11      MisBP:0   MisRate:0.00%    MPKI:0.00
PC:3d5dc     Total:56074      MisBP:0   MisRate:0.00%    MPKI:0.00
PC:477fe     Total:11      MisBP:0   MisRate:0.00%    MPKI:0.00
PC:1bdde     Total:1373      MisBP:0   MisRate:0.00%    MPKI:0.00
PC:1bddc     Total:237      MisBP:0   MisRate:0.00%    MPKI:0.00
PC:47808     Total:11      MisBP:0   MisRate:0.00%    MPKI:0.00
PC:1bdd8     Total:804      MisBP:0   MisRate:0.00%    MPKI:0.00
PC:3a43a     Total:1      MisBP:0   MisRate:0.00%    MPKI:0.00
PC:1bdd4     Total:804      MisBP:0   MisRate:0.00%    MPKI:0.00
PC:1bdd2     Total:804      MisBP:0   MisRate:0.00%    MPKI:0.00
PC:1bdce     Total:207      MisBP:0   MisRate:0.00%    MPKI:0.00
PC:3a432     Total:1      MisBP:0   MisRate:0.00%    MPKI:0.00
PC:1bdcc     Total:207      MisBP:0   MisRate:0.00%    MPKI:0.00
PC:3a42e     Total:1      MisBP:0   MisRate:0.00%    MPKI:0.00
PC:1bdc8     Total:207      MisBP:0   MisRate:0.00%    MPKI:0.00
PC:47818     Total:11      MisBP:0   MisRate:0.00%    MPKI:0.00
PC:47824     Total:11      MisBP:0   MisRate:0.00%    MPKI:0.00
PC:3d600     Total:44581      MisBP:0   MisRate:0.00%    MPKI:0.00
PC:47822     Total:11      MisBP:0   MisRate:0.00%    MPKI:0.00
PC:3d5fc     Total:46167      MisBP:0   MisRate:0.00%    MPKI:0.00
PC:51a40     Total:6      MisBP:0   MisRate:0.00%    MPKI:0.00
PC:4781e     Total:11      MisBP:0   MisRate:0.00%    MPKI:0.00
PC:3d5f8     Total:54638      MisBP:0   MisRate:0.00%    MPKI:0.00
PC:51a3c     Total:9      MisBP:0   MisRate:0.00%    MPKI:0.00
PC:3d1c6     Total:109      MisBP:0   MisRate:0.00%    MPKI:0.00
PC:4781a     Total:11      MisBP:0   MisRate:0.00%    MPKI:0.00
PC:3d636     Total:1397      MisBP:0   MisRate:0.00%    MPKI:0.00
PC:3d5f4     Total:54638      MisBP:0   MisRate:0.00%    MPKI:0.00
PC:51a38     Total:10      MisBP:0   MisRate:0.00%    MPKI:0.00
PC:3d1c2     Total:109      MisBP:0   MisRate:0.00%    MPKI:0.00
PC:47816     Total:11      MisBP:0   MisRate:0.00%    MPKI:0.00
PC:3d5f0     Total:55374      MisBP:0   MisRate:0.00%    MPKI:0.00
PC:47812     Total:11      MisBP:0   MisRate:0.00%    MPKI:0.00
PC:3d5ee     Total:54871      MisBP:0   MisRate:0.00%    MPKI:0.00
PC:3d5ea     Total:54993      MisBP:0   MisRate:0.00%    MPKI:0.00
PC:4780c     Total:11      MisBP:0   MisRate:0.00%    MPKI:0.00
PC:47acc     Total:89      MisBP:0   MisRate:0.00%    MPKI:0.00
PC:47ada     Total:89      MisBP:0   MisRate:0.00%    MPKI:0.00
PC:3d8b4     Total:69420      MisBP:0   MisRate:0.00%    MPKI:0.00
PC:47ad6     Total:89      MisBP:0   MisRate:0.00%    MPKI:0.00
PC:1502a     Total:31      MisBP:0   MisRate:0.00%    MPKI:0.00
PC:3d8b2     Total:69421      MisBP:0   MisRate:0.00%    MPKI:0.00
PC:47ad4     Total:89      MisBP:0   MisRate:0.00%    MPKI:0.00
PC:15026     Total:31      MisBP:0   MisRate:0.00%    MPKI:0.00
PC:3d8ae     Total:69109      MisBP:0   MisRate:0.00%    MPKI:0.00
PC:47ad0     Total:89      MisBP:0   MisRate:0.00%    MPKI:0.00
PC:3d8aa     Total:69120      MisBP:0   MisRate:0.00%    MPKI:0.00
PC:3d8b8     Total:69539      MisBP:0   MisRate:0.00%    MPKI:0.00
PC:47aca     Total:89      MisBP:0   MisRate:0.00%    MPKI:0.00
PC:3d8a6     Total:43701      MisBP:0   MisRate:0.00%    MPKI:0.00
PC:47ac8     Total:45      MisBP:0   MisRate:0.00%    MPKI:0.00
PC:3d8a4     Total:43701      MisBP:0   MisRate:0.00%    MPKI:0.00
PC:47ac6     Total:45      MisBP:0   MisRate:0.00%    MPKI:0.00
PC:3d8a0     Total:43701      MisBP:0   MisRate:0.00%    MPKI:0.00
PC:47ac2     Total:45      MisBP:0   MisRate:0.00%    MPKI:0.00
PC:3d6ca     Total:2128      MisBP:0   MisRate:0.00%    MPKI:0.00
PC:478ec     Total:15      MisBP:0   MisRate:0.00%    MPKI:0.00
PC:3e124     Total:25      MisBP:0   MisRate:0.00%    MPKI:0.00
PC:3d8d6     Total:65833      MisBP:0   MisRate:0.00%    MPKI:0.00
PC:47af8     Total:522      MisBP:0   MisRate:0.00%    MPKI:0.00
PC:3d8d4     Total:67111      MisBP:0   MisRate:0.00%    MPKI:0.00
PC:47af6     Total:539      MisBP:0   MisRate:0.00%    MPKI:0.00
PC:47af2     Total:523      MisBP:0   MisRate:0.00%    MPKI:0.00
PC:47aee     Total:525      MisBP:0   MisRate:0.00%    MPKI:0.00
PC:3d8c8     Total:66742      MisBP:0   MisRate:0.00%    MPKI:0.00
PC:47aea     Total:525      MisBP:0   MisRate:0.00%    MPKI:0.00
PC:47ae6     Total:525      MisBP:0   MisRate:0.00%    MPKI:0.00
PC:15038     Total:34      MisBP:0   MisRate:0.00%    MPKI:0.00
PC:3d6c6     Total:2128      MisBP:0   MisRate:0.00%    MPKI:0.00
PC:47ae2     Total:525      MisBP:0   MisRate:0.00%    MPKI:0.00
PC:15034     Total:24      MisBP:0   MisRate:0.00%    MPKI:0.00
PC:3e120     Total:25      MisBP:0   MisRate:0.00%    MPKI:0.00
PC:47ade     Total:525      MisBP:0   MisRate:0.00%    MPKI:0.00
PC:15032     Total:8      MisBP:0   MisRate:0.00%    MPKI:0.00
PC:3d8ba     Total:69511      MisBP:0   MisRate:0.00%    MPKI:0.00
PC:47adc     Total:525      MisBP:0   MisRate:0.00%    MPKI:0.00
PC:15030     Total:8      MisBP:0   MisRate:0.00%    MPKI:0.00
PC:3e11c     Total:25      MisBP:0   MisRate:0.00%    MPKI:0.00
PC:47880     Total:76      MisBP:0   MisRate:0.00%    MPKI:0.00
PC:51ae8     Total:230      MisBP:0   MisRate:0.00%    MPKI:0.00
PC:478c6     Total:19      MisBP:0   MisRate:0.00%    MPKI:0.00
PC:478c2     Total:19      MisBP:0   MisRate:0.00%    MPKI:0.00
PC:3d692     Total:15569      MisBP:0   MisRate:0.00%    MPKI:0.00
PC:478b4     Total:220      MisBP:0   MisRate:0.00%    MPKI:0.00
PC:51ab6     Total:2221      MisBP:0   MisRate:0.00%    MPKI:0.00
PC:47894     Total:446      MisBP:0   MisRate:0.00%    MPKI:0.00
PC:3d66a     Total:1213      MisBP:0   MisRate:0.00%    MPKI:0.00
PC:4788c     Total:528      MisBP:0   MisRate:0.00%    MPKI:0.00
PC:3d22c     Total:2      MisBP:0   MisRate:0.00%    MPKI:0.00
PC:3d6a4     Total:285      MisBP:0   MisRate:0.00%    MPKI:0.00
PC:51a96     Total:3612      MisBP:0   MisRate:0.00%    MPKI:0.00
PC:3d220     Total:3      MisBP:0   MisRate:0.00%    MPKI:0.00
PC:47874     Total:83      MisBP:0   MisRate:0.00%    MPKI:0.00
PC:51a8e     Total:7143      MisBP:0   MisRate:0.00%    MPKI:0.00
PC:3d218     Total:3      MisBP:0   MisRate:0.00%    MPKI:0.00
PC:4786c     Total:83      MisBP:0   MisRate:0.00%    MPKI:0.00
PC:3d63a     Total:1397      MisBP:0   MisRate:0.00%    MPKI:0.00
PC:51a7e     Total:17368      MisBP:0   MisRate:0.00%    MPKI:0.00
PC:4785c     Total:85      MisBP:0   MisRate:0.00%    MPKI:0.00
PC:3d282     Total:385      MisBP:0   MisRate:0.00%    MPKI:0.00
PC:51b0a     Total:4788      MisBP:0   MisRate:0.00%    MPKI:0.00
PC:3d294     Total:385      MisBP:0   MisRate:0.00%    MPKI:0.00
PC:478e8     Total:15      MisBP:0   MisRate:0.00%    MPKI:0.00
PC:3d6be     Total:26985      MisBP:0   MisRate:0.00%    MPKI:0.00
PC:51b02     Total:2153      MisBP:0   MisRate:0.00%    MPKI:0.00
PC:478e0     Total:13      MisBP:0   MisRate:0.00%    MPKI:0.00
PC:3d6ba     Total:22360      MisBP:0   MisRate:0.00%    MPKI:0.00
PC:478dc     Total:13      MisBP:0   MisRate:0.00%    MPKI:0.00
PC:3d6b4     Total:278      MisBP:0   MisRate:0.00%    MPKI:0.00
PC:51af8     Total:9466      MisBP:0   MisRate:0.00%    MPKI:0.00
PC:3a424     Total:1      MisBP:0   MisRate:0.00%    MPKI:0.00
PC:478d6     Total:13      MisBP:0   MisRate:0.00%    MPKI:0.00
PC:51af4     Total:98      MisBP:0   MisRate:0.00%    MPKI:0.00
PC:3d27e     Total:385      MisBP:0   MisRate:0.00%    MPKI:0.00
PC:478d2     Total:19      MisBP:0   MisRate:0.00%    MPKI:0.00
PC:3d6ac     Total:278      MisBP:0   MisRate:0.00%    MPKI:0.00
PC:51af0     Total:98      MisBP:0   MisRate:0.00%    MPKI:0.00
PC:478ce     Total:19      MisBP:0   MisRate:0.00%    MPKI:0.00
PC:3d6a8     Total:278      MisBP:0   MisRate:0.00%    MPKI:0.00
PC:478ca     Total:19      MisBP:0   MisRate:0.00%    MPKI:0.00
PC:3d5d0     Total:55357      MisBP:0   MisRate:0.00%    MPKI:0.00
PC:38d56     Total:2317      MisBP:0   MisRate:0.00%    MPKI:0.00
PC:1a6f0     Total:51450      MisBP:0   MisRate:0.00%    MPKI:0.00
PC:38d52     Total:2317      MisBP:0   MisRate:0.00%    MPKI:0.00
PC:1a6ec     Total:428096      MisBP:0   MisRate:0.00%    MPKI:0.00
PC:38d4e     Total:2317      MisBP:0   MisRate:0.00%    MPKI:0.00
PC:1a6e8     Total:53809      MisBP:0   MisRate:0.00%    MPKI:0.00
PC:3d5d8     Total:56074      MisBP:0   MisRate:0.00%    MPKI:0.00
PC:3d5d6     Total:56074      MisBP:0   MisRate:0.00%    MPKI:0.00
PC:477f8     Total:40      MisBP:0   MisRate:0.00%    MPKI:0.00
PC:3d5d4     Total:56260      MisBP:0   MisRate:0.00%    MPKI:0.00
PC:1a6f4     Total:51448      MisBP:0   MisRate:0.00%    MPKI:0.00
PC:477f2     Total:73      MisBP:0   MisRate:0.00%    MPKI:0.00
PC:477ee     Total:73      MisBP:0   MisRate:0.00%    MPKI:0.00
PC:3d5ca     Total:54336      MisBP:0   MisRate:0.00%    MPKI:0.00
PC:477ec     Total:73      MisBP:0   MisRate:0.00%    MPKI:0.00
PC:477ea     Total:73      MisBP:0   MisRate:0.00%    MPKI:0.00
PC:3d5c6     Total:54337      MisBP:0   MisRate:0.00%    MPKI:0.00
PC:477e8     Total:73      MisBP:0   MisRate:0.00%    MPKI:0.00
PC:3d5c2     Total:19807      MisBP:0   MisRate:0.00%    MPKI:0.00
PC:51a06     Total:50      MisBP:0   MisRate:0.00%    MPKI:0.00
PC:477e4     Total:73      MisBP:0   MisRate:0.00%    MPKI:0.00
PC:1a700     Total:46866      MisBP:0   MisRate:0.00%    MPKI:0.00
PC:1a70e     Total:3293      MisBP:0   MisRate:0.00%    MPKI:0.00
PC:38d72     Total:4514      MisBP:0   MisRate:0.00%    MPKI:0.00
PC:38d70     Total:4514      MisBP:0   MisRate:0.00%    MPKI:0.00
PC:1a70a     Total:46844      MisBP:0   MisRate:0.00%    MPKI:0.00
PC:38d6e     Total:4546      MisBP:0   MisRate:0.00%    MPKI:0.00
PC:1a708     Total:46844      MisBP:0   MisRate:0.00%    MPKI:0.00
PC:38d6c     Total:4546      MisBP:0   MisRate:0.00%    MPKI:0.00
PC:38d6a     Total:4551      MisBP:0   MisRate:0.00%    MPKI:0.00
PC:1a704     Total:46860      MisBP:0   MisRate:0.00%    MPKI:0.00
PC:1a702     Total:46866      MisBP:0   MisRate:0.00%    MPKI:0.00
PC:477e0     Total:55      MisBP:0   MisRate:0.00%    MPKI:0.00
PC:38d62     Total:2316      MisBP:0   MisRate:0.00%    MPKI:0.00
PC:1a6fc     Total:51447      MisBP:0   MisRate:0.00%    MPKI:0.00
PC:38d60     Total:2316      MisBP:0   MisRate:0.00%    MPKI:0.00
PC:1a6fa     Total:51448      MisBP:0   MisRate:0.00%    MPKI:0.00
PC:38d5e     Total:2316      MisBP:0   MisRate:0.00%    MPKI:0.00
PC:1a6f8     Total:51448      MisBP:0   MisRate:0.00%    MPKI:0.00
PC:38d5c     Total:2303      MisBP:0   MisRate:0.00%    MPKI:0.00
PC:1a6f6     Total:51448      MisBP:0   MisRate:0.00%    MPKI:0.00
PC:38d5a     Total:2303      MisBP:0   MisRate:0.00%    MPKI:0.00
PC:477aa     Total:89      MisBP:0   MisRate:0.00%    MPKI:0.00
PC:477be     Total:83      MisBP:0   MisRate:0.00%    MPKI:0.00
PC:477ba     Total:83      MisBP:0   MisRate:0.00%    MPKI:0.00
PC:3d594     Total:68624      MisBP:0   MisRate:0.00%    MPKI:0.00
PC:477b6     Total:83      MisBP:0   MisRate:0.00%    MPKI:0.00
PC:3d590     Total:68628      MisBP:0   MisRate:0.00%    MPKI:0.00
PC:477b2     Total:83      MisBP:0   MisRate:0.00%    MPKI:0.00
PC:3d58c     Total:43976      MisBP:0   MisRate:0.00%    MPKI:0.00
PC:477ae     Total:83      MisBP:0   MisRate:0.00%    MPKI:0.00
PC:477ac     Total:82      MisBP:0   MisRate:0.00%    MPKI:0.00
PC:3d588     Total:43976      MisBP:0   MisRate:0.00%    MPKI:0.00
PC:3d59c     Total:68549      MisBP:0   MisRate:0.00%    MPKI:0.00
PC:3d586     Total:43976      MisBP:0   MisRate:0.00%    MPKI:0.00
PC:477a8     Total:89      MisBP:0   MisRate:0.00%    MPKI:0.00
PC:477a6     Total:89      MisBP:0   MisRate:0.00%    MPKI:0.00
PC:3d580     Total:43976      MisBP:0   MisRate:0.00%    MPKI:0.00
PC:477a2     Total:89      MisBP:0   MisRate:0.00%    MPKI:0.00
PC:3d57e     Total:46131      MisBP:0   MisRate:0.00%    MPKI:0.00
PC:477a0     Total:89      MisBP:0   MisRate:0.00%    MPKI:0.00
PC:3d57a     Total:46131      MisBP:0   MisRate:0.00%    MPKI:0.00
PC:4779c     Total:89      MisBP:0   MisRate:0.00%    MPKI:0.00
PC:3d5ae     Total:53931      MisBP:0   MisRate:0.00%    MPKI:0.00
PC:3d5ba     Total:53604      MisBP:0   MisRate:0.00%    MPKI:0.00
PC:519fe     Total:86      MisBP:0   MisRate:0.00%    MPKI:0.00
PC:477dc     Total:55      MisBP:0   MisRate:0.00%    MPKI:0.00
PC:477d8     Total:55      MisBP:0   MisRate:0.00%    MPKI:0.00
PC:3d5b4     Total:53929      MisBP:0   MisRate:0.00%    MPKI:0.00
PC:477d6     Total:72      MisBP:0   MisRate:0.00%    MPKI:0.00
PC:3d5b2     Total:53931      MisBP:0   MisRate:0.00%    MPKI:0.00
PC:519f6     Total:130      MisBP:0   MisRate:0.00%    MPKI:0.00
PC:477d4     Total:72      MisBP:0   MisRate:0.00%    MPKI:0.00
PC:477d2     Total:72      MisBP:0   MisRate:0.00%    MPKI:0.00
PC:38d74     Total:4514      MisBP:0   MisRate:0.00%    MPKI:0.00
PC:519f2     Total:131      MisBP:0   MisRate:0.00%    MPKI:0.00
PC:477d0     Total:72      MisBP:0   MisRate:0.00%    MPKI:0.00
PC:3d5aa     Total:53944      MisBP:0   MisRate:0.00%    MPKI:0.00
PC:477cc     Total:71      MisBP:0   MisRate:0.00%    MPKI:0.00
PC:477c8     Total:71      MisBP:0   MisRate:0.00%    MPKI:0.00
PC:519e6     Total:501      MisBP:0   MisRate:0.00%    MPKI:0.00
PC:477c4     Total:71      MisBP:0   MisRate:0.00%    MPKI:0.00
PC:3d59e     Total:68546      MisBP:0   MisRate:0.00%    MPKI:0.00
PC:477c0     Total:71      MisBP:0   MisRate:0.00%    MPKI:0.00
PC:1a782     Total:64730      MisBP:0   MisRate:0.00%    MPKI:0.00
PC:1bd82     Total:236      MisBP:0   MisRate:0.00%    MPKI:0.00
PC:1bd80     Total:236      MisBP:0   MisRate:0.00%    MPKI:0.00
PC:1bd7e     Total:249      MisBP:0   MisRate:0.00%    MPKI:0.00
PC:1bd7c     Total:249      MisBP:0   MisRate:0.00%    MPKI:0.00
PC:1bd78     Total:249      MisBP:0   MisRate:0.00%    MPKI:0.00
PC:1bd74     Total:1999      MisBP:0   MisRate:0.00%    MPKI:0.00
PC:1bd70     Total:250      MisBP:0   MisRate:0.00%    MPKI:0.00
PC:1a78c     Total:30909      MisBP:0   MisRate:0.00%    MPKI:0.00
PC:1a786     Total:64729      MisBP:0   MisRate:0.00%    MPKI:0.00
PC:1a784     Total:64730      MisBP:0   MisRate:0.00%    MPKI:0.00
PC:1bd84     Total:236      MisBP:0   MisRate:0.00%    MPKI:0.00
PC:1a780     Total:64730      MisBP:0   MisRate:0.00%    MPKI:0.00
PC:1a77c     Total:147582      MisBP:0   MisRate:0.00%    MPKI:0.00
PC:1a77a     Total:73795      MisBP:0   MisRate:0.00%    MPKI:0.00
PC:1a778     Total:36080      MisBP:0   MisRate:0.00%    MPKI:0.00
PC:1a776     Total:36081      MisBP:0   MisRate:0.00%    MPKI:0.00
PC:1a774     Total:36081      MisBP:0   MisRate:0.00%    MPKI:0.00
PC:1a772     Total:36082      MisBP:0   MisRate:0.00%    MPKI:0.00
PC:1a770     Total:36421      MisBP:0   MisRate:0.00%    MPKI:0.00
PC:1a76e     Total:36424      MisBP:0   MisRate:0.00%    MPKI:0.00
PC:1bda6     Total:11      MisBP:0   MisRate:0.00%    MPKI:0.00
PC:1bdbe     Total:11      MisBP:0   MisRate:0.00%    MPKI:0.00
PC:3a420     Total:407      MisBP:0   MisRate:0.00%    MPKI:0.00
PC:1bdba     Total:11      MisBP:0   MisRate:0.00%    MPKI:0.00
PC:3a41c     Total:407      MisBP:0   MisRate:0.00%    MPKI:0.00
PC:1bdb6     Total:11      MisBP:0   MisRate:0.00%    MPKI:0.00
PC:3a418     Total:407      MisBP:0   MisRate:0.00%    MPKI:0.00
PC:1bdb2     Total:11      MisBP:0   MisRate:0.00%    MPKI:0.00
PC:3a414     Total:407      MisBP:0   MisRate:0.00%    MPKI:0.00
PC:1bdae     Total:11      MisBP:0   MisRate:0.00%    MPKI:0.00
PC:1bdaa     Total:11      MisBP:0   MisRate:0.00%    MPKI:0.00
PC:1a76a     Total:36424      MisBP:0   MisRate:0.00%    MPKI:0.00
PC:1bda2     Total:11      MisBP:0   MisRate:0.00%    MPKI:0.00
PC:1bd9e     Total:11      MisBP:0   MisRate:0.00%    MPKI:0.00
PC:1bd9a     Total:11      MisBP:0   MisRate:0.00%    MPKI:0.00
PC:1bd96     Total:11      MisBP:0   MisRate:0.00%    MPKI:0.00
PC:1bd92     Total:11      MisBP:0   MisRate:0.00%    MPKI:0.00
PC:1bd90     Total:13      MisBP:0   MisRate:0.00%    MPKI:0.00
PC:1bd8c     Total:13      MisBP:0   MisRate:0.00%    MPKI:0.00
PC:1bd88     Total:236      MisBP:0   MisRate:0.00%    MPKI:0.00
PC:1bd86     Total:236      MisBP:0   MisRate:0.00%    MPKI:0.00
PC:38d8a     Total:341      MisBP:0   MisRate:0.00%    MPKI:0.00
PC:38d96     Total:10226      MisBP:0   MisRate:0.00%    MPKI:0.00
PC:1a730     Total:2849      MisBP:0   MisRate:0.00%    MPKI:0.00
PC:42fb4     Total:11      MisBP:0   MisRate:0.00%    MPKI:0.00
PC:19ec8     Total:4      MisBP:0   MisRate:0.00%    MPKI:0.00
PC:38d92     Total:28834      MisBP:0   MisRate:0.00%    MPKI:0.00
PC:1a72c     Total:3101      MisBP:0   MisRate:0.00%    MPKI:0.00
PC:42fb0     Total:15080      MisBP:0   MisRate:0.00%    MPKI:0.00
PC:19ec4     Total:4      MisBP:0   MisRate:0.00%    MPKI:0.00
PC:38d8e     Total:28834      MisBP:0   MisRate:0.00%    MPKI:0.00
PC:1a728     Total:3101      MisBP:0   MisRate:0.00%    MPKI:0.00
PC:19ecc     Total:4      MisBP:0   MisRate:0.00%    MPKI:0.00
PC:42fac     Total:15080      MisBP:0   MisRate:0.00%    MPKI:0.00
PC:1a724     Total:3101      MisBP:0   MisRate:0.00%    MPKI:0.00
PC:1a720     Total:3101      MisBP:0   MisRate:0.00%    MPKI:0.00
PC:1a71c     Total:3101      MisBP:0   MisRate:0.00%    MPKI:0.00
PC:38d7e     Total:4223      MisBP:0   MisRate:0.00%    MPKI:0.00
PC:1a718     Total:3102      MisBP:0   MisRate:0.00%    MPKI:0.00
PC:38d7a     Total:4461      MisBP:0   MisRate:0.00%    MPKI:0.00
PC:1a714     Total:3102      MisBP:0   MisRate:0.00%    MPKI:0.00
PC:1a712     Total:3102      MisBP:0   MisRate:0.00%    MPKI:0.00
PC:38db0     Total:2      MisBP:0   MisRate:0.00%    MPKI:0.00
PC:1a766     Total:36425      MisBP:0   MisRate:0.00%    MPKI:0.00
PC:1a764     Total:39020      MisBP:0   MisRate:0.00%    MPKI:0.00
PC:1a760     Total:39021      MisBP:0   MisRate:0.00%    MPKI:0.00
PC:1a75c     Total:39021      MisBP:0   MisRate:0.00%    MPKI:0.00
PC:1a75a     Total:39021      MisBP:0   MisRate:0.00%    MPKI:0.00
PC:38dbc     Total:1      MisBP:0   MisRate:0.00%    MPKI:0.00
PC:1a756     Total:39118      MisBP:0   MisRate:0.00%    MPKI:0.00
PC:38db8     Total:1      MisBP:0   MisRate:0.00%    MPKI:0.00
PC:1a752     Total:39118      MisBP:0   MisRate:0.00%    MPKI:0.00
PC:1a74e     Total:39118      MisBP:0   MisRate:0.00%    MPKI:0.00
PC:3fb18     Total:31      MisBP:0   MisRate:0.00%    MPKI:0.00
PC:1a74a     Total:39119      MisBP:0   MisRate:0.00%    MPKI:0.00
PC:38da2     Total:10698      MisBP:0   MisRate:0.00%    MPKI:0.00
PC:1a73c     Total:2846      MisBP:0   MisRate:0.00%    MPKI:0.00
PC:38d9e     Total:10694      MisBP:0   MisRate:0.00%    MPKI:0.00
PC:1a738     Total:2846      MisBP:0   MisRate:0.00%    MPKI:0.00
PC:42fbc     Total:11      MisBP:0   MisRate:0.00%    MPKI:0.00
PC:19ed0     Total:4      MisBP:0   MisRate:0.00%    MPKI:0.00
PC:1a734     Total:2848      MisBP:0   MisRate:0.00%    MPKI:0.00
PC:42fb8     Total:11      MisBP:0   MisRate:0.00%    MPKI:0.00
PC:1b7b8     Total:847      MisBP:0   MisRate:0.00%    MPKI:0.00
PC:158a0     Total:30869      MisBP:0   MisRate:0.00%    MPKI:0.00
PC:84d28     Total:1      MisBP:0   MisRate:0.00%    MPKI:0.00
PC:3f002     Total:7      MisBP:0   MisRate:0.00%    MPKI:0.00
PC:15f16     Total:31576      MisBP:0   MisRate:0.00%    MPKI:0.00
PC:1677a     Total:7218      MisBP:0   MisRate:0.00%    MPKI:0.00
PC:3f866     Total:72      MisBP:0   MisRate:0.00%    MPKI:0.00
PC:1b7bc     Total:847      MisBP:0   MisRate:0.00%    MPKI:0.00
PC:3effe     Total:8      MisBP:0   MisRate:0.00%    MPKI:0.00
PC:15f12     Total:30636      MisBP:0   MisRate:0.00%    MPKI:0.00
PC:16776     Total:7219      MisBP:0   MisRate:0.00%    MPKI:0.00
PC:3e98c     Total:674      MisBP:0   MisRate:0.00%    MPKI:0.00
PC:3e986     Total:674      MisBP:0   MisRate:0.00%    MPKI:0.00
PC:84d22     Total:1      MisBP:0   MisRate:0.00%    MPKI:0.00
PC:3effa     Total:8      MisBP:0   MisRate:0.00%    MPKI:0.00
PC:15f0e     Total:30636      MisBP:0   MisRate:0.00%    MPKI:0.00
PC:16772     Total:7219      MisBP:0   MisRate:0.00%    MPKI:0.00
PC:1b7b4     Total:847      MisBP:0   MisRate:0.00%    MPKI:0.00
PC:84d1e     Total:1      MisBP:0   MisRate:0.00%    MPKI:0.00
PC:15fa6     Total:6542      MisBP:0   MisRate:0.00%    MPKI:0.00
PC:3e1b6     Total:140      MisBP:0   MisRate:0.00%    MPKI:0.00
PC:47f84     Total:7      MisBP:0   MisRate:0.00%    MPKI:0.00
PC:1b7c8     Total:810      MisBP:0   MisRate:0.00%    MPKI:0.00
PC:3f878     Total:89      MisBP:0   MisRate:0.00%    MPKI:0.00
PC:3f010     Total:7      MisBP:0   MisRate:0.00%    MPKI:0.00
PC:15f24     Total:28136      MisBP:0   MisRate:0.00%    MPKI:0.00
PC:16788     Total:5373      MisBP:0   MisRate:0.00%    MPKI:0.00
PC:3f874     Total:117      MisBP:0   MisRate:0.00%    MPKI:0.00
PC:3f00e     Total:7      MisBP:0   MisRate:0.00%    MPKI:0.00
PC:15f22     Total:28137      MisBP:0   MisRate:0.00%    MPKI:0.00
PC:16786     Total:6433      MisBP:0   MisRate:0.00%    MPKI:0.00
PC:3f872     Total:117      MisBP:0   MisRate:0.00%    MPKI:0.00
PC:3e996     Total:2058      MisBP:0   MisRate:0.00%    MPKI:0.00
PC:154da     Total:131447      MisBP:0   MisRate:0.00%    MPKI:0.00
PC:3f00a     Total:7      MisBP:0   MisRate:0.00%    MPKI:0.00
PC:16782     Total:6433      MisBP:0   MisRate:0.00%    MPKI:0.00
PC:3f86e     Total:117      MisBP:0   MisRate:0.00%    MPKI:0.00
PC:158a6     Total:30979      MisBP:0   MisRate:0.00%    MPKI:0.00
PC:1b7c4     Total:810      MisBP:0   MisRate:0.00%    MPKI:0.00
PC:16780     Total:6433      MisBP:0   MisRate:0.00%    MPKI:0.00
PC:3f004     Total:7      MisBP:0   MisRate:0.00%    MPKI:0.00
PC:15f18     Total:28139      MisBP:0   MisRate:0.00%    MPKI:0.00
PC:1677c     Total:7218      MisBP:0   MisRate:0.00%    MPKI:0.00
PC:40442     Total:402      MisBP:0   MisRate:0.00%    MPKI:0.00
PC:4132e     Total:516      MisBP:0   MisRate:0.00%    MPKI:0.00
PC:4044e     Total:402      MisBP:0   MisRate:0.00%    MPKI:0.00
PC:1823e     Total:196543      MisBP:0   MisRate:0.00%    MPKI:0.00
PC:4132a     Total:516      MisBP:0   MisRate:0.00%    MPKI:0.00
PC:160b0     Total:198134      MisBP:0   MisRate:0.00%    MPKI:0.00
PC:3f19c     Total:44      MisBP:0   MisRate:0.00%    MPKI:0.00
PC:3d848     Total:37622      MisBP:0   MisRate:0.00%    MPKI:0.00
PC:47a6a     Total:67      MisBP:0   MisRate:0.00%    MPKI:0.00
PC:14fc0     Total:128565      MisBP:0   MisRate:0.00%    MPKI:0.00
PC:3e0ac     Total:10      MisBP:0   MisRate:0.00%    MPKI:0.00
PC:18242     Total:192654      MisBP:0   MisRate:0.00%    MPKI:0.00
PC:18232     Total:196727      MisBP:0   MisRate:0.00%    MPKI:0.00
PC:4131e     Total:8198      MisBP:0   MisRate:0.00%    MPKI:0.00
PC:15ac4     Total:75798      MisBP:0   MisRate:0.00%    MPKI:0.00
PC:3ebb0     Total:45      MisBP:0   MisRate:0.00%    MPKI:0.00
PC:15e60     Total:41320      MisBP:0   MisRate:0.00%    MPKI:0.00
PC:3ef4c     Total:10      MisBP:0   MisRate:0.00%    MPKI:0.00
PC:39508     Total:2825      MisBP:0   MisRate:0.00%    MPKI:0.00
PC:1aea2     Total:11518      MisBP:0   MisRate:0.00%    MPKI:0.00
PC:15e48     Total:42156      MisBP:0   MisRate:0.00%    MPKI:0.00
PC:3e806     Total:4335      MisBP:0   MisRate:0.00%    MPKI:0.00
PC:165fc     Total:28884      MisBP:0   MisRate:0.00%    MPKI:0.00
PC:3ee82     Total:9      MisBP:0   MisRate:0.00%    MPKI:0.00
PC:15d96     Total:6828      MisBP:0   MisRate:0.00%    MPKI:0.00
PC:165fa     Total:28885      MisBP:0   MisRate:0.00%    MPKI:0.00
PC:3f6e6     Total:7201      MisBP:0   MisRate:0.00%    MPKI:0.00
PC:3e80a     Total:4335      MisBP:0   MisRate:0.00%    MPKI:0.00
PC:3ee7e     Total:11      MisBP:0   MisRate:0.00%    MPKI:0.00
PC:15d92     Total:6828      MisBP:0   MisRate:0.00%    MPKI:0.00
PC:165f6     Total:28689      MisBP:0   MisRate:0.00%    MPKI:0.00
PC:3f6e2     Total:6001      MisBP:0   MisRate:0.00%    MPKI:0.00
PC:1678c     Total:5373      MisBP:0   MisRate:0.00%    MPKI:0.00
PC:1571a     Total:169179      MisBP:0   MisRate:0.00%    MPKI:0.00
PC:3ee7c     Total:11      MisBP:0   MisRate:0.00%    MPKI:0.00
PC:165f4     Total:28689      MisBP:0   MisRate:0.00%    MPKI:0.00
PC:3f6e0     Total:6001      MisBP:0   MisRate:0.00%    MPKI:0.00
PC:3f6dc     Total:6001      MisBP:0   MisRate:0.00%    MPKI:0.00
PC:40458     Total:1      MisBP:0   MisRate:0.00%    MPKI:0.00
PC:160ba     Total:197588      MisBP:0   MisRate:0.00%    MPKI:0.00
PC:3f1a6     Total:43      MisBP:0   MisRate:0.00%    MPKI:0.00
PC:40452     Total:1      MisBP:0   MisRate:0.00%    MPKI:0.00
PC:1c2f4     Total:46165      MisBP:0   MisRate:0.00%    MPKI:0.00
PC:15d98     Total:6828      MisBP:0   MisRate:0.00%    MPKI:0.00
PC:39440     Total:54      MisBP:0   MisRate:0.00%    MPKI:0.00
PC:1adda     Total:63231      MisBP:0   MisRate:0.00%    MPKI:0.00
PC:1add6     Total:63231      MisBP:0   MisRate:0.00%    MPKI:0.00
PC:15d7e     Total:42302      MisBP:0   MisRate:0.00%    MPKI:0.00
PC:3ee6a     Total:1569      MisBP:0   MisRate:0.00%    MPKI:0.00
PC:1c35a     Total:21964      MisBP:0   MisRate:0.00%    MPKI:0.00
PC:3a970     Total:894      MisBP:0   MisRate:0.00%    MPKI:0.00
PC:1c30a     Total:5766      MisBP:0   MisRate:0.00%    MPKI:0.00
PC:3a95a     Total:894      MisBP:0   MisRate:0.00%    MPKI:0.00
PC:1adee     Total:58894      MisBP:0   MisRate:0.00%    MPKI:0.00
PC:403dc     Total:1605      MisBP:0   MisRate:0.00%    MPKI:0.00
PC:403c8     Total:5224      MisBP:0   MisRate:0.00%    MPKI:0.00
PC:181b8     Total:5729      MisBP:0   MisRate:0.00%    MPKI:0.00
PC:412a4     Total:6237      MisBP:0   MisRate:0.00%    MPKI:0.00
PC:403c4     Total:3473      MisBP:0   MisRate:0.00%    MPKI:0.00
PC:181b4     Total:5729      MisBP:0   MisRate:0.00%    MPKI:0.00
PC:412a0     Total:6237      MisBP:0   MisRate:0.00%    MPKI:0.00
PC:3a940     Total:896      MisBP:0   MisRate:0.00%    MPKI:0.00
PC:1c2da     Total:48709      MisBP:0   MisRate:0.00%    MPKI:0.00
PC:163b6     Total:45239      MisBP:0   MisRate:0.00%    MPKI:0.00
PC:3e63c     Total:1      MisBP:0   MisRate:0.00%    MPKI:0.00
PC:1a894     Total:90127      MisBP:0   MisRate:0.00%    MPKI:0.00
PC:1584a     Total:30667      MisBP:0   MisRate:0.00%    MPKI:0.00
PC:3e936     Total:2653      MisBP:0   MisRate:0.00%    MPKI:0.00
PC:1a88c     Total:90128      MisBP:0   MisRate:0.00%    MPKI:0.00
PC:15846     Total:30667      MisBP:0   MisRate:0.00%    MPKI:0.00
PC:3e932     Total:2654      MisBP:0   MisRate:0.00%    MPKI:0.00
PC:38eee     Total:2761      MisBP:0   MisRate:0.00%    MPKI:0.00
PC:1a888     Total:730989      MisBP:0   MisRate:0.00%    MPKI:0.00
PC:39464     Total:46      MisBP:0   MisRate:0.00%    MPKI:0.00
PC:1adfe     Total:3023      MisBP:0   MisRate:0.00%    MPKI:0.00
PC:40468     Total:1      MisBP:0   MisRate:0.00%    MPKI:0.00
PC:15db4     Total:35522      MisBP:0   MisRate:0.00%    MPKI:0.00
PC:3e638     Total:1      MisBP:0   MisRate:0.00%    MPKI:0.00
PC:1554c     Total:61016      MisBP:0   MisRate:0.00%    MPKI:0.00
PC:15db0     Total:35522      MisBP:0   MisRate:0.00%    MPKI:0.00
PC:3ee9c     Total:9      MisBP:0   MisRate:0.00%    MPKI:0.00
PC:1adf2     Total:58894      MisBP:0   MisRate:0.00%    MPKI:0.00
PC:3e634     Total:1      MisBP:0   MisRate:0.00%    MPKI:0.00
PC:15548     Total:61018      MisBP:0   MisRate:0.00%    MPKI:0.00
PC:15dac     Total:35522      MisBP:0   MisRate:0.00%    MPKI:0.00
PC:3f01a     Total:7      MisBP:0   MisRate:0.00%    MPKI:0.00
PC:84d48     Total:17163      MisBP:0   MisRate:0.00%    MPKI:0.00
PC:1b7de     Total:795      MisBP:0   MisRate:0.00%    MPKI:0.00
PC:3f020     Total:7      MisBP:0   MisRate:0.00%    MPKI:0.00
PC:15f34     Total:26379      MisBP:0   MisRate:0.00%    MPKI:0.00
PC:1b7da     Total:809      MisBP:0   MisRate:0.00%    MPKI:0.00
PC:84d44     Total:1      MisBP:0   MisRate:0.00%    MPKI:0.00
PC:3f01e     Total:7      MisBP:0   MisRate:0.00%    MPKI:0.00
PC:16796     Total:5373      MisBP:0   MisRate:0.00%    MPKI:0.00
PC:3e9a6     Total:2058      MisBP:0   MisRate:0.00%    MPKI:0.00
PC:1b7d8     Total:810      MisBP:0   MisRate:0.00%    MPKI:0.00
PC:15f38     Total:26372      MisBP:0   MisRate:0.00%    MPKI:0.00
PC:16792     Total:5373      MisBP:0   MisRate:0.00%    MPKI:0.00
PC:3f87e     Total:9      MisBP:0   MisRate:0.00%    MPKI:0.00
PC:1b7d4     Total:810      MisBP:0   MisRate:0.00%    MPKI:0.00
PC:84d3e     Total:1      MisBP:0   MisRate:0.00%    MPKI:0.00
PC:3f018     Total:7      MisBP:0   MisRate:0.00%    MPKI:0.00
PC:15f2c     Total:28116      MisBP:0   MisRate:0.00%    MPKI:0.00
PC:16790     Total:5373      MisBP:0   MisRate:0.00%    MPKI:0.00
PC:3f014     Total:7      MisBP:0   MisRate:0.00%    MPKI:0.00
PC:15f28     Total:28121      MisBP:0   MisRate:0.00%    MPKI:0.00
PC:15f46     Total:4385      MisBP:0   MisRate:0.00%    MPKI:0.00
PC:160c6     Total:188611      MisBP:0   MisRate:0.00%    MPKI:0.00
PC:3f1b2     Total:83      MisBP:0   MisRate:0.00%    MPKI:0.00
PC:40464     Total:1      MisBP:0   MisRate:0.00%    MPKI:0.00
PC:40460     Total:1      MisBP:0   MisRate:0.00%    MPKI:0.00
PC:4044a     Total:402      MisBP:0   MisRate:0.00%    MPKI:0.00
PC:40446     Total:402      MisBP:0   MisRate:0.00%    MPKI:0.00
PC:18236     Total:196726      MisBP:0   MisRate:0.00%    MPKI:0.00
PC:3f036     Total:7      MisBP:0   MisRate:0.00%    MPKI:0.00
PC:15f4a     Total:4385      MisBP:0   MisRate:0.00%    MPKI:0.00
PC:3f032     Total:7      MisBP:0   MisRate:0.00%    MPKI:0.00
PC:3eee6     Total:9      MisBP:0   MisRate:0.00%    MPKI:0.00
PC:1b7ec     Total:129259      MisBP:0   MisRate:0.00%    MPKI:0.00
PC:3f028     Total:9      MisBP:0   MisRate:0.00%    MPKI:0.00
PC:15f3c     Total:26362      MisBP:0   MisRate:0.00%    MPKI:0.00
PC:1b7e2     Total:795      MisBP:0   MisRate:0.00%    MPKI:0.00
PC:3f026     Total:9      MisBP:0   MisRate:0.00%    MPKI:0.00
PC:1679e     Total:42204      MisBP:0   MisRate:0.00%    MPKI:0.00
PC:3e9ae     Total:1974      MisBP:0   MisRate:0.00%    MPKI:0.00
PC:1b7e0     Total:795      MisBP:0   MisRate:0.00%    MPKI:0.00
PC:3f024     Total:7      MisBP:0   MisRate:0.00%    MPKI:0.00
PC:1609c     Total:202339      MisBP:0   MisRate:0.00%    MPKI:0.00
PC:16ef4     Total:30865      MisBP:0   MisRate:0.00%    MPKI:0.00
PC:40652     Total:723      MisBP:0   MisRate:0.00%    MPKI:0.00
PC:17dca     Total:111244      MisBP:0   MisRate:0.00%    MPKI:0.00
PC:3ffda     Total:6177      MisBP:0   MisRate:0.00%    MPKI:0.00
PC:16eee     Total:30456      MisBP:0   MisRate:0.00%    MPKI:0.00
PC:4064c     Total:601      MisBP:0   MisRate:0.00%    MPKI:0.00
PC:17dc4     Total:111245      MisBP:0   MisRate:0.00%    MPKI:0.00
PC:40eb0     Total:4945      MisBP:0   MisRate:0.00%    MPKI:0.00
PC:3ffd4     Total:6177      MisBP:0   MisRate:0.00%    MPKI:0.00
PC:1822e     Total:4194      MisBP:0   MisRate:0.00%    MPKI:0.00
PC:3ffe0     Total:6219      MisBP:0   MisRate:0.00%    MPKI:0.00
PC:3f188     Total:43      MisBP:0   MisRate:0.00%    MPKI:0.00
PC:9ec98     Total:40      MisBP:0   MisRate:0.00%    MPKI:0.00
PC:1b0de     Total:8778      MisBP:0   MisRate:0.00%    MPKI:0.00
PC:4043a     Total:3835      MisBP:0   MisRate:0.00%    MPKI:0.00
PC:16098     Total:202348      MisBP:0   MisRate:0.00%    MPKI:0.00
PC:9ec94     Total:40      MisBP:0   MisRate:0.00%    MPKI:0.00
PC:39740     Total:1010      MisBP:0   MisRate:0.00%    MPKI:0.00
PC:1b0da     Total:8778      MisBP:0   MisRate:0.00%    MPKI:0.00
PC:40436     Total:3837      MisBP:0   MisRate:0.00%    MPKI:0.00
PC:16094     Total:202390      MisBP:0   MisRate:0.00%    MPKI:0.00
PC:15d04     Total:69922      MisBP:0   MisRate:0.00%    MPKI:0.00
PC:3ee16     Total:29      MisBP:0   MisRate:0.00%    MPKI:0.00
PC:1ad6c     Total:256      MisBP:0   MisRate:0.00%    MPKI:0.00
PC:1ad64     Total:256      MisBP:0   MisRate:0.00%    MPKI:0.00
PC:15d1c     Total:69475      MisBP:0   MisRate:0.00%    MPKI:0.00
PC:1ad58     Total:256      MisBP:0   MisRate:0.00%    MPKI:0.00
PC:393ba     Total:6      MisBP:0   MisRate:0.00%    MPKI:0.00
PC:1ad54     Total:260      MisBP:0   MisRate:0.00%    MPKI:0.00
PC:15d08     Total:69922      MisBP:0   MisRate:0.00%    MPKI:0.00
PC:393b0     Total:26      MisBP:0   MisRate:0.00%    MPKI:0.00
PC:1ad4a     Total:260      MisBP:0   MisRate:0.00%    MPKI:0.00
PC:3f180     Total:67      MisBP:0   MisRate:0.00%    MPKI:0.00
PC:3edf0     Total:2052      MisBP:0   MisRate:0.00%    MPKI:0.00
PC:393ac     Total:26      MisBP:0   MisRate:0.00%    MPKI:0.00
PC:1ad46     Total:1748      MisBP:0   MisRate:0.00%    MPKI:0.00
PC:393a8     Total:26      MisBP:0   MisRate:0.00%    MPKI:0.00
PC:1ad42     Total:1748      MisBP:0   MisRate:0.00%    MPKI:0.00
PC:17de4     Total:110960      MisBP:0   MisRate:0.00%    MPKI:0.00
PC:40ed0     Total:4403      MisBP:0   MisRate:0.00%    MPKI:0.00
PC:17dd0     Total:111244      MisBP:0   MisRate:0.00%    MPKI:0.00
PC:40ebc     Total:4939      MisBP:0   MisRate:0.00%    MPKI:0.00
PC:403b0     Total:4318      MisBP:0   MisRate:0.00%    MPKI:0.00
PC:403ec     Total:5183      MisBP:0   MisRate:0.00%    MPKI:0.00
PC:181dc     Total:3857      MisBP:0   MisRate:0.00%    MPKI:0.00
PC:412c8     Total:4494      MisBP:0   MisRate:0.00%    MPKI:0.00
PC:403be     Total:3877      MisBP:0   MisRate:0.00%    MPKI:0.00
PC:181ae     Total:5729      MisBP:0   MisRate:0.00%    MPKI:0.00
PC:4129a     Total:5093      MisBP:0   MisRate:0.00%    MPKI:0.00
PC:403b8     Total:4318      MisBP:0   MisRate:0.00%    MPKI:0.00
PC:41294     Total:5227      MisBP:0   MisRate:0.00%    MPKI:0.00
PC:403b4     Total:4318      MisBP:0   MisRate:0.00%    MPKI:0.00
PC:181a4     Total:238129      MisBP:0   MisRate:0.00%    MPKI:0.00
PC:412ce     Total:4494      MisBP:0   MisRate:0.00%    MPKI:0.00
PC:181a0     Total:238150      MisBP:0   MisRate:0.00%    MPKI:0.00
PC:4128c     Total:5227      MisBP:0   MisRate:0.00%    MPKI:0.00
PC:3c9e6     Total:120438      MisBP:0   MisRate:0.00%    MPKI:0.00
PC:3c93e     Total:2151      MisBP:0   MisRate:0.00%    MPKI:0.00
PC:19770     Total:3623      MisBP:0   MisRate:0.00%    MPKI:0.00
PC:3c93c     Total:2151      MisBP:0   MisRate:0.00%    MPKI:0.00
PC:3c93a     Total:2151      MisBP:0   MisRate:0.00%    MPKI:0.00
PC:1976c     Total:3623      MisBP:0   MisRate:0.00%    MPKI:0.00
PC:3c938     Total:2151      MisBP:0   MisRate:0.00%    MPKI:0.00
PC:40416     Total:4760      MisBP:0   MisRate:0.00%    MPKI:0.00
PC:3973c     Total:1554      MisBP:0   MisRate:0.00%    MPKI:0.00
PC:1b0d6     Total:8778      MisBP:0   MisRate:0.00%    MPKI:0.00
PC:40426     Total:4766      MisBP:0   MisRate:0.00%    MPKI:0.00
PC:40422     Total:4816      MisBP:0   MisRate:0.00%    MPKI:0.00
PC:39728     Total:1202      MisBP:0   MisRate:0.00%    MPKI:0.00
PC:1b0c2     Total:6045      MisBP:0   MisRate:0.00%    MPKI:0.00
PC:4041e     Total:4815      MisBP:0   MisRate:0.00%    MPKI:0.00
PC:4041a     Total:4759      MisBP:0   MisRate:0.00%    MPKI:0.00
PC:39720     Total:1203      MisBP:0   MisRate:0.00%    MPKI:0.00
PC:1b0ba     Total:10936      MisBP:0   MisRate:0.00%    MPKI:0.00
PC:15d2a     Total:4393      MisBP:0   MisRate:0.00%    MPKI:0.00
PC:9ec70     Total:22      MisBP:0   MisRate:0.00%    MPKI:0.00
PC:38222     Total:8178      MisBP:0   MisRate:0.00%    MPKI:0.00
PC:1b0b6     Total:10936      MisBP:0   MisRate:0.00%    MPKI:0.00
PC:40412     Total:4865      MisBP:0   MisRate:0.00%    MPKI:0.00
PC:403fe     Total:5181      MisBP:0   MisRate:0.00%    MPKI:0.00
PC:181ee     Total:3848      MisBP:0   MisRate:0.00%    MPKI:0.00
PC:412da     Total:7957      MisBP:0   MisRate:0.00%    MPKI:0.00
PC:403f2     Total:5183      MisBP:0   MisRate:0.00%    MPKI:0.00
PC:181e2     Total:3856      MisBP:0   MisRate:0.00%    MPKI:0.00
PC:39470     Total:9620      MisBP:0   MisRate:0.00%    MPKI:0.00
PC:39486     Total:898      MisBP:0   MisRate:0.00%    MPKI:0.00
PC:1ae20     Total:26840      MisBP:0   MisRate:0.00%    MPKI:0.00
PC:1ae1c     Total:26840      MisBP:0   MisRate:0.00%    MPKI:0.00
PC:15dd6     Total:36263      MisBP:0   MisRate:0.00%    MPKI:0.00
PC:3eec2     Total:7      MisBP:0   MisRate:0.00%    MPKI:0.00
PC:15dd4     Total:36263      MisBP:0   MisRate:0.00%    MPKI:0.00
PC:3947c     Total:9615      MisBP:0   MisRate:0.00%    MPKI:0.00
PC:1ae16     Total:27704      MisBP:0   MisRate:0.00%    MPKI:0.00
PC:15dd2     Total:36263      MisBP:0   MisRate:0.00%    MPKI:0.00
PC:3eebe     Total:6      MisBP:0   MisRate:0.00%    MPKI:0.00
PC:1ae22     Total:26840      MisBP:0   MisRate:0.00%    MPKI:0.00
PC:1ae0a     Total:27727      MisBP:0   MisRate:0.00%    MPKI:0.00
PC:39126     Total:154      MisBP:0   MisRate:0.00%    MPKI:0.00
PC:24ce2     Total:171654      MisBP:0   MisRate:0.00%    MPKI:0.00
PC:15c1c     Total:7468      MisBP:0   MisRate:0.00%    MPKI:0.00
PC:3ed08     Total:2810      MisBP:0   MisRate:0.00%    MPKI:0.00
PC:15e64     Total:41318      MisBP:0   MisRate:0.00%    MPKI:0.00
PC:3950c     Total:2825      MisBP:0   MisRate:0.00%    MPKI:0.00
PC:1aea6     Total:11518      MisBP:0   MisRate:0.00%    MPKI:0.00
PC:3911c     Total:154      MisBP:0   MisRate:0.00%    MPKI:0.00
PC:15df0     Total:35391      MisBP:0   MisRate:0.00%    MPKI:0.00
PC:394a2     Total:397      MisBP:0   MisRate:0.00%    MPKI:0.00
PC:1ae3c     Total:1845      MisBP:0   MisRate:0.00%    MPKI:0.00
PC:15df8     Total:35308      MisBP:0   MisRate:0.00%    MPKI:0.00
PC:1ae3a     Total:1845      MisBP:0   MisRate:0.00%    MPKI:0.00
PC:3949e     Total:397      MisBP:0   MisRate:0.00%    MPKI:0.00
PC:1ae38     Total:1845      MisBP:0   MisRate:0.00%    MPKI:0.00
PC:15df4     Total:36059      MisBP:0   MisRate:0.00%    MPKI:0.00
PC:3eee0     Total:5      MisBP:0   MisRate:0.00%    MPKI:0.00
PC:3949c     Total:397      MisBP:0   MisRate:0.00%    MPKI:0.00
PC:1ae36     Total:1845      MisBP:0   MisRate:0.00%    MPKI:0.00
PC:392ba     Total:4642      MisBP:0   MisRate:0.00%    MPKI:0.00
PC:1ae30     Total:4619      MisBP:0   MisRate:0.00%    MPKI:0.00
PC:39492     Total:770      MisBP:0   MisRate:0.00%    MPKI:0.00
PC:1ae2c     Total:4666      MisBP:0   MisRate:0.00%    MPKI:0.00
PC:15de8     Total:35394      MisBP:0   MisRate:0.00%    MPKI:0.00
PC:3eed4     Total:8      MisBP:0   MisRate:0.00%    MPKI:0.00
PC:1ae2a     Total:4666      MisBP:0   MisRate:0.00%    MPKI:0.00
PC:15de4     Total:35394      MisBP:0   MisRate:0.00%    MPKI:0.00
PC:3eed0     Total:9      MisBP:0   MisRate:0.00%    MPKI:0.00
PC:15de0     Total:35401      MisBP:0   MisRate:0.00%    MPKI:0.00
PC:15832     Total:32836      MisBP:0   MisRate:0.00%    MPKI:0.00
PC:39352     Total:3094      MisBP:0   MisRate:0.00%    MPKI:0.00
PC:1acec     Total:42541      MisBP:0   MisRate:0.00%    MPKI:0.00
PC:3934e     Total:3094      MisBP:0   MisRate:0.00%    MPKI:0.00
PC:1ace8     Total:1094349      MisBP:0   MisRate:0.00%    MPKI:0.00
PC:1ace4     Total:133785      MisBP:0   MisRate:0.00%    MPKI:0.00
PC:39340     Total:3094      MisBP:0   MisRate:0.00%    MPKI:0.00
PC:1acda     Total:119587      MisBP:0   MisRate:0.00%    MPKI:0.00
PC:3933a     Total:3134      MisBP:0   MisRate:0.00%    MPKI:0.00
PC:1acd4     Total:116702      MisBP:0   MisRate:0.00%    MPKI:0.00
PC:1583e     Total:32859      MisBP:0   MisRate:0.00%    MPKI:0.00
PC:3ed96     Total:9      MisBP:0   MisRate:0.00%    MPKI:0.00
PC:3e91e     Total:2730      MisBP:0   MisRate:0.00%    MPKI:0.00
PC:15822     Total:27658      MisBP:0   MisRate:0.00%    MPKI:0.00
PC:1581e     Total:27658      MisBP:0   MisRate:0.00%    MPKI:0.00
PC:3e90a     Total:2730      MisBP:0   MisRate:0.00%    MPKI:0.00
PC:15818     Total:27658      MisBP:0   MisRate:0.00%    MPKI:0.00
PC:15810     Total:28022      MisBP:0   MisRate:0.00%    MPKI:0.00
PC:15808     Total:28022      MisBP:0   MisRate:0.00%    MPKI:0.00
PC:15d30     Total:4393      MisBP:0   MisRate:0.00%    MPKI:0.00
PC:3ee1c     Total:29      MisBP:0   MisRate:0.00%    MPKI:0.00
PC:3939a     Total:26      MisBP:0   MisRate:0.00%    MPKI:0.00
PC:1ac54     Total:3766      MisBP:0   MisRate:0.00%    MPKI:0.00
PC:15c12     Total:7607      MisBP:0   MisRate:0.00%    MPKI:0.00
PC:3ecfe     Total:2941      MisBP:0   MisRate:0.00%    MPKI:0.00
PC:16276     Total:74453      MisBP:0   MisRate:0.00%    MPKI:0.00
PC:3f362     Total:228      MisBP:0   MisRate:0.00%    MPKI:0.00
PC:1625e     Total:42544      MisBP:0   MisRate:0.00%    MPKI:0.00
PC:3f34a     Total:204      MisBP:0   MisRate:0.00%    MPKI:0.00
PC:15cf6     Total:652      MisBP:0   MisRate:0.00%    MPKI:0.00
PC:15cf2     Total:652      MisBP:0   MisRate:0.00%    MPKI:0.00
PC:3edde     Total:2082      MisBP:0   MisRate:0.00%    MPKI:0.00
PC:3e93e     Total:2606      MisBP:0   MisRate:0.00%    MPKI:0.00
PC:15ce6     Total:705      MisBP:0   MisRate:0.00%    MPKI:0.00
PC:15cd4     Total:763      MisBP:0   MisRate:0.00%    MPKI:0.00
PC:3937c     Total:887      MisBP:0   MisRate:0.00%    MPKI:0.00
PC:1ad16     Total:64158      MisBP:0   MisRate:0.00%    MPKI:0.00
PC:39364     Total:3059      MisBP:0   MisRate:0.00%    MPKI:0.00
PC:1acfe     Total:59958      MisBP:0   MisRate:0.00%    MPKI:0.00
PC:15cb8     Total:28410      MisBP:0   MisRate:0.00%    MPKI:0.00
PC:3eda4     Total:2677      MisBP:0   MisRate:0.00%    MPKI:0.00
PC:15caa     Total:44876      MisBP:0   MisRate:0.00%    MPKI:0.00
PC:184bc     Total:4      MisBP:0   MisRate:0.00%    MPKI:0.00
PC:40d60     Total:37      MisBP:0   MisRate:0.00%    MPKI:0.00
PC:40d5e     Total:37      MisBP:0   MisRate:0.00%    MPKI:0.00
PC:40d5a     Total:37      MisBP:0   MisRate:0.00%    MPKI:0.00
PC:40d56     Total:37      MisBP:0   MisRate:0.00%    MPKI:0.00
PC:40d52     Total:37      MisBP:0   MisRate:0.00%    MPKI:0.00
PC:40d50     Total:42      MisBP:0   MisRate:0.00%    MPKI:0.00
PC:40d4e     Total:38      MisBP:0   MisRate:0.00%    MPKI:0.00
PC:40d4a     Total:38      MisBP:0   MisRate:0.00%    MPKI:0.00
PC:40d48     Total:38      MisBP:0   MisRate:0.00%    MPKI:0.00
PC:40d46     Total:38      MisBP:0   MisRate:0.00%    MPKI:0.00
PC:40d62     Total:37      MisBP:0   MisRate:0.00%    MPKI:0.00
PC:40d44     Total:38      MisBP:0   MisRate:0.00%    MPKI:0.00
PC:40d42     Total:38      MisBP:0   MisRate:0.00%    MPKI:0.00
PC:40d3e     Total:38      MisBP:0   MisRate:0.00%    MPKI:0.00
PC:5170a     Total:4569      MisBP:0   MisRate:0.00%    MPKI:0.00
PC:3ce94     Total:5763      MisBP:0   MisRate:0.00%    MPKI:0.00
PC:51708     Total:4569      MisBP:0   MisRate:0.00%    MPKI:0.00
PC:51706     Total:4569      MisBP:0   MisRate:0.00%    MPKI:0.00
PC:3ce90     Total:5763      MisBP:0   MisRate:0.00%    MPKI:0.00
PC:51702     Total:2986      MisBP:0   MisRate:0.00%    MPKI:0.00
PC:3ce8c     Total:5763      MisBP:0   MisRate:0.00%    MPKI:0.00
PC:40d78     Total:36      MisBP:0   MisRate:0.00%    MPKI:0.00
PC:184fe     Total:11      MisBP:0   MisRate:0.00%    MPKI:0.00
PC:40d86     Total:35      MisBP:0   MisRate:0.00%    MPKI:0.00
PC:40d82     Total:35      MisBP:0   MisRate:0.00%    MPKI:0.00
PC:184f8     Total:677      MisBP:0   MisRate:0.00%    MPKI:0.00
PC:415e4     Total:146      MisBP:0   MisRate:0.00%    MPKI:0.00
PC:40d80     Total:35      MisBP:0   MisRate:0.00%    MPKI:0.00
PC:40d7e     Total:36      MisBP:0   MisRate:0.00%    MPKI:0.00
PC:184f2     Total:677      MisBP:0   MisRate:0.00%    MPKI:0.00
PC:415de     Total:146      MisBP:0   MisRate:0.00%    MPKI:0.00
PC:40d7a     Total:36      MisBP:0   MisRate:0.00%    MPKI:0.00
PC:3d274     Total:4312      MisBP:0   MisRate:0.00%    MPKI:0.00
PC:40d76     Total:36      MisBP:0   MisRate:0.00%    MPKI:0.00
PC:40d72     Total:36      MisBP:0   MisRate:0.00%    MPKI:0.00
PC:40d70     Total:36      MisBP:0   MisRate:0.00%    MPKI:0.00
PC:40d6e     Total:36      MisBP:0   MisRate:0.00%    MPKI:0.00
PC:40d6c     Total:36      MisBP:0   MisRate:0.00%    MPKI:0.00
PC:40d6a     Total:36      MisBP:0   MisRate:0.00%    MPKI:0.00
PC:40d68     Total:36      MisBP:0   MisRate:0.00%    MPKI:0.00
PC:40d66     Total:37      MisBP:0   MisRate:0.00%    MPKI:0.00
PC:40d64     Total:37      MisBP:0   MisRate:0.00%    MPKI:0.00
PC:3d28e     Total:385      MisBP:0   MisRate:0.00%    MPKI:0.00
PC:51b1a     Total:41      MisBP:0   MisRate:0.00%    MPKI:0.00
PC:3d2a0     Total:385      MisBP:0   MisRate:0.00%    MPKI:0.00
PC:51b16     Total:41      MisBP:0   MisRate:0.00%    MPKI:0.00
PC:3d29e     Total:385      MisBP:0   MisRate:0.00%    MPKI:0.00
PC:3d29c     Total:385      MisBP:0   MisRate:0.00%    MPKI:0.00
PC:3d29a     Total:385      MisBP:0   MisRate:0.00%    MPKI:0.00
PC:51b10     Total:4788      MisBP:0   MisRate:0.00%    MPKI:0.00
PC:3d298     Total:385      MisBP:0   MisRate:0.00%    MPKI:0.00
PC:3d292     Total:385      MisBP:0   MisRate:0.00%    MPKI:0.00
PC:51b08     Total:2153      MisBP:0   MisRate:0.00%    MPKI:0.00
PC:3d2a4     Total:554      MisBP:0   MisRate:0.00%    MPKI:0.00
PC:51b04     Total:2153      MisBP:0   MisRate:0.00%    MPKI:0.00
PC:3d28a     Total:385      MisBP:0   MisRate:0.00%    MPKI:0.00
PC:51b00     Total:2153      MisBP:0   MisRate:0.00%    MPKI:0.00
PC:3d286     Total:385      MisBP:0   MisRate:0.00%    MPKI:0.00
PC:51afc     Total:4733      MisBP:0   MisRate:0.00%    MPKI:0.00
PC:3d27c     Total:1930      MisBP:0   MisRate:0.00%    MPKI:0.00
PC:51af2     Total:98      MisBP:0   MisRate:0.00%    MPKI:0.00
PC:40e7a     Total:40      MisBP:0   MisRate:0.00%    MPKI:0.00
PC:40e78     Total:40      MisBP:0   MisRate:0.00%    MPKI:0.00
PC:3ce88     Total:5763      MisBP:0   MisRate:0.00%    MPKI:0.00
PC:3d270     Total:616      MisBP:0   MisRate:0.00%    MPKI:0.00
PC:51ae6     Total:232      MisBP:0   MisRate:0.00%    MPKI:0.00
PC:3d0fe     Total:675      MisBP:0   MisRate:0.00%    MPKI:0.00
PC:3d0f4     Total:641      MisBP:0   MisRate:0.00%    MPKI:0.00
PC:3d0ee     Total:463      MisBP:0   MisRate:0.00%    MPKI:0.00
PC:3d0e4     Total:554      MisBP:0   MisRate:0.00%    MPKI:0.00
PC:3d0c8     Total:380      MisBP:0   MisRate:0.00%    MPKI:0.00
PC:3d0c2     Total:380      MisBP:0   MisRate:0.00%    MPKI:0.00
PC:3d0be     Total:384      MisBP:0   MisRate:0.00%    MPKI:0.00
PC:516fe     Total:3009      MisBP:0   MisRate:0.00%    MPKI:0.00
PC:40d88     Total:35      MisBP:0   MisRate:0.00%    MPKI:0.00
PC:3d2ba     Total:531      MisBP:0   MisRate:0.00%    MPKI:0.00
PC:516fa     Total:3009      MisBP:0   MisRate:0.00%    MPKI:0.00
PC:3ce84     Total:5756      MisBP:0   MisRate:0.00%    MPKI:0.00
PC:3d2b6     Total:531      MisBP:0   MisRate:0.00%    MPKI:0.00
PC:3d2b2     Total:531      MisBP:0   MisRate:0.00%    MPKI:0.00
PC:516f4     Total:30592      MisBP:0   MisRate:0.00%    MPKI:0.00
PC:3ce7e     Total:2515      MisBP:0   MisRate:0.00%    MPKI:0.00
PC:51b20     Total:3246      MisBP:0   MisRate:0.00%    MPKI:0.00
PC:3d2a8     Total:554      MisBP:0   MisRate:0.00%    MPKI:0.00
PC:40dee     Total:5      MisBP:0   MisRate:0.00%    MPKI:0.00
PC:17d9a     Total:210422      MisBP:0   MisRate:0.00%    MPKI:0.00
PC:40e82     Total:32      MisBP:0   MisRate:0.00%    MPKI:0.00
PC:17d96     Total:210422      MisBP:0   MisRate:0.00%    MPKI:0.00
PC:40e7e     Total:32      MisBP:0   MisRate:0.00%    MPKI:0.00
PC:17d92     Total:210429      MisBP:0   MisRate:0.00%    MPKI:0.00
PC:40dfe     Total:5      MisBP:0   MisRate:0.00%    MPKI:0.00
PC:40dfa     Total:5      MisBP:0   MisRate:0.00%    MPKI:0.00
PC:40df6     Total:5      MisBP:0   MisRate:0.00%    MPKI:0.00
PC:40df2     Total:5      MisBP:0   MisRate:0.00%    MPKI:0.00
PC:40df0     Total:5      MisBP:0   MisRate:0.00%    MPKI:0.00
PC:40e86     Total:12      MisBP:0   MisRate:0.00%    MPKI:0.00
PC:40dea     Total:5      MisBP:0   MisRate:0.00%    MPKI:0.00
PC:40de6     Total:5      MisBP:0   MisRate:0.00%    MPKI:0.00
PC:40de4     Total:5      MisBP:0   MisRate:0.00%    MPKI:0.00
PC:40de2     Total:5      MisBP:0   MisRate:0.00%    MPKI:0.00
PC:40de0     Total:5      MisBP:0   MisRate:0.00%    MPKI:0.00
PC:40dde     Total:5      MisBP:0   MisRate:0.00%    MPKI:0.00
PC:40dda     Total:5      MisBP:0   MisRate:0.00%    MPKI:0.00
PC:40dd8     Total:5      MisBP:0   MisRate:0.00%    MPKI:0.00
PC:40dd6     Total:5      MisBP:0   MisRate:0.00%    MPKI:0.00
PC:40e98     Total:12      MisBP:0   MisRate:0.00%    MPKI:0.00
PC:16a2c     Total:8287      MisBP:0   MisRate:0.00%    MPKI:0.00
PC:40e10     Total:35      MisBP:0   MisRate:0.00%    MPKI:0.00
PC:40ea6     Total:15      MisBP:0   MisRate:0.00%    MPKI:0.00
PC:40ea4     Total:32      MisBP:0   MisRate:0.00%    MPKI:0.00
PC:17db8     Total:112746      MisBP:0   MisRate:0.00%    MPKI:0.00
PC:40ea2     Total:32      MisBP:0   MisRate:0.00%    MPKI:0.00
PC:17db6     Total:112765      MisBP:0   MisRate:0.00%    MPKI:0.00
PC:40e9e     Total:12      MisBP:0   MisRate:0.00%    MPKI:0.00
PC:17db2     Total:112765      MisBP:0   MisRate:0.00%    MPKI:0.00
PC:40e9c     Total:12      MisBP:0   MisRate:0.00%    MPKI:0.00
PC:40dd4     Total:5      MisBP:0   MisRate:0.00%    MPKI:0.00
PC:40e96     Total:12      MisBP:0   MisRate:0.00%    MPKI:0.00
PC:17daa     Total:208635      MisBP:0   MisRate:0.00%    MPKI:0.00
PC:40e94     Total:12      MisBP:0   MisRate:0.00%    MPKI:0.00
PC:40e92     Total:12      MisBP:0   MisRate:0.00%    MPKI:0.00
PC:17da6     Total:208655      MisBP:0   MisRate:0.00%    MPKI:0.00
PC:40e8e     Total:12      MisBP:0   MisRate:0.00%    MPKI:0.00
PC:17da2     Total:208669      MisBP:0   MisRate:0.00%    MPKI:0.00
PC:40e8a     Total:12      MisBP:0   MisRate:0.00%    MPKI:0.00
PC:17d9e     Total:208673      MisBP:0   MisRate:0.00%    MPKI:0.00
PC:40d94     Total:36      MisBP:0   MisRate:0.00%    MPKI:0.00
PC:18514     Total:48384      MisBP:0   MisRate:0.00%    MPKI:0.00
PC:40d9c     Total:36      MisBP:0   MisRate:0.00%    MPKI:0.00
PC:18512     Total:6913      MisBP:0   MisRate:0.00%    MPKI:0.00
PC:415fe     Total:4      MisBP:0   MisRate:0.00%    MPKI:0.00
PC:40d9a     Total:36      MisBP:0   MisRate:0.00%    MPKI:0.00
PC:18510     Total:673      MisBP:0   MisRate:0.00%    MPKI:0.00
PC:415fc     Total:14      MisBP:0   MisRate:0.00%    MPKI:0.00
PC:40d98     Total:36      MisBP:0   MisRate:0.00%    MPKI:0.00
PC:1850e     Total:673      MisBP:0   MisRate:0.00%    MPKI:0.00
PC:40d96     Total:36      MisBP:0   MisRate:0.00%    MPKI:0.00
PC:40d9e     Total:36      MisBP:0   MisRate:0.00%    MPKI:0.00
PC:40d92     Total:36      MisBP:0   MisRate:0.00%    MPKI:0.00
PC:18508     Total:673      MisBP:0   MisRate:0.00%    MPKI:0.00
PC:415f4     Total:14      MisBP:0   MisRate:0.00%    MPKI:0.00
PC:40d90     Total:36      MisBP:0   MisRate:0.00%    MPKI:0.00
PC:40d8c     Total:35      MisBP:0   MisRate:0.00%    MPKI:0.00
PC:18502     Total:673      MisBP:0   MisRate:0.00%    MPKI:0.00
PC:40d8a     Total:35      MisBP:0   MisRate:0.00%    MPKI:0.00
PC:18500     Total:11      MisBP:0   MisRate:0.00%    MPKI:0.00
PC:415ec     Total:132      MisBP:0   MisRate:0.00%    MPKI:0.00
PC:40dba     Total:14      MisBP:0   MisRate:0.00%    MPKI:0.00
PC:40dd2     Total:5      MisBP:0   MisRate:0.00%    MPKI:0.00
PC:40dce     Total:5      MisBP:0   MisRate:0.00%    MPKI:0.00
PC:40dcc     Total:5      MisBP:0   MisRate:0.00%    MPKI:0.00
PC:40dca     Total:5      MisBP:0   MisRate:0.00%    MPKI:0.00
PC:40dc8     Total:5      MisBP:0   MisRate:0.00%    MPKI:0.00
PC:40dc6     Total:5      MisBP:0   MisRate:0.00%    MPKI:0.00
PC:40dc4     Total:5      MisBP:0   MisRate:0.00%    MPKI:0.00
PC:40dc0     Total:5      MisBP:0   MisRate:0.00%    MPKI:0.00
PC:40dbe     Total:14      MisBP:0   MisRate:0.00%    MPKI:0.00
PC:40dbc     Total:14      MisBP:0   MisRate:0.00%    MPKI:0.00
PC:17d8c     Total:210429      MisBP:0   MisRate:0.00%    MPKI:0.00
PC:40db8     Total:14      MisBP:0   MisRate:0.00%    MPKI:0.00
PC:40db6     Total:14      MisBP:0   MisRate:0.00%    MPKI:0.00
PC:40db2     Total:41      MisBP:0   MisRate:0.00%    MPKI:0.00
PC:40dae     Total:41      MisBP:0   MisRate:0.00%    MPKI:0.00
PC:40dac     Total:41      MisBP:0   MisRate:0.00%    MPKI:0.00
PC:40da8     Total:41      MisBP:0   MisRate:0.00%    MPKI:0.00
PC:40da6     Total:41      MisBP:0   MisRate:0.00%    MPKI:0.00
PC:40da2     Total:34      MisBP:0   MisRate:0.00%    MPKI:0.00
PC:40da0     Total:34      MisBP:0   MisRate:0.00%    MPKI:0.00
PC:3e7be     Total:71      MisBP:0   MisRate:0.00%    MPKI:0.00
PC:40bfe     Total:38      MisBP:0   MisRate:0.00%    MPKI:0.00
PC:40bfc     Total:42      MisBP:0   MisRate:0.00%    MPKI:0.00
PC:40bf8     Total:42      MisBP:0   MisRate:0.00%    MPKI:0.00
PC:40bf4     Total:420      MisBP:0   MisRate:0.00%    MPKI:0.00
PC:3e7da     Total:58      MisBP:0   MisRate:0.00%    MPKI:0.00
PC:3e7d6     Total:58      MisBP:0   MisRate:0.00%    MPKI:0.00
PC:3e7cc     Total:52      MisBP:0   MisRate:0.00%    MPKI:0.00
PC:3e7c8     Total:52      MisBP:0   MisRate:0.00%    MPKI:0.00
PC:156dc     Total:164863      MisBP:0   MisRate:0.00%    MPKI:0.00
PC:156d6     Total:164886      MisBP:0   MisRate:0.00%    MPKI:0.00
PC:40c02     Total:38      MisBP:0   MisRate:0.00%    MPKI:0.00
PC:156d2     Total:172399      MisBP:0   MisRate:0.00%    MPKI:0.00
PC:3fb16     Total:32      MisBP:0   MisRate:0.00%    MPKI:0.00
PC:16a2a     Total:8421      MisBP:0   MisRate:0.00%    MPKI:0.00
PC:3fb14     Total:32      MisBP:0   MisRate:0.00%    MPKI:0.00
PC:16a28     Total:8421      MisBP:0   MisRate:0.00%    MPKI:0.00
PC:3fb10     Total:32      MisBP:0   MisRate:0.00%    MPKI:0.00
PC:16a24     Total:8441      MisBP:0   MisRate:0.00%    MPKI:0.00
[...]
PC:376fa     Total:25081      MisBP:4582   MisRate:18.27%    MPKI:0.01
PC:1c4d2     Total:16390      MisBP:4620   MisRate:28.19%    MPKI:0.01
PC:1af18     Total:45386      MisBP:4715   MisRate:10.39%    MPKI:0.02
PC:380b4     Total:38428      MisBP:4719   MisRate:12.28%    MPKI:0.02
PC:3847c     Total:28924      MisBP:4738   MisRate:16.38%    MPKI:0.02
PC:1628c     Total:68697      MisBP:4755   MisRate:6.92%    MPKI:0.02
PC:37d4c     Total:52305      MisBP:4790   MisRate:9.16%    MPKI:0.02
PC:381da     Total:49981      MisBP:4796   MisRate:9.60%    MPKI:0.02
PC:3810e     Total:51675      MisBP:4812   MisRate:9.31%    MPKI:0.02
PC:1afd6     Total:26096      MisBP:4864   MisRate:18.64%    MPKI:0.02
PC:382b6     Total:31159      MisBP:4891   MisRate:15.70%    MPKI:0.02
PC:1637a     Total:59043      MisBP:4894   MisRate:8.29%    MPKI:0.02
PC:15f62     Total:24221      MisBP:4897   MisRate:20.22%    MPKI:0.02
PC:19688     Total:27337      MisBP:4904   MisRate:17.94%    MPKI:0.02
PC:379f2     Total:16992      MisBP:4932   MisRate:29.03%    MPKI:0.02
PC:381e4     Total:46132      MisBP:5031   MisRate:10.91%    MPKI:0.02
PC:38442     Total:39745      MisBP:5128   MisRate:12.90%    MPKI:0.02
PC:1c35c     Total:21963      MisBP:5156   MisRate:23.48%    MPKI:0.02
PC:1c1fc     Total:68375      MisBP:5156   MisRate:7.54%    MPKI:0.02
PC:19a5e     Total:37087      MisBP:5165   MisRate:13.93%    MPKI:0.02
PC:37a8e     Total:23791      MisBP:5170   MisRate:21.73%    MPKI:0.02
PC:15dfa     Total:35305      MisBP:5226   MisRate:14.80%    MPKI:0.02
PC:3871c     Total:36335      MisBP:5281   MisRate:14.53%    MPKI:0.02
PC:1c7d4     Total:15948      MisBP:5290   MisRate:33.17%    MPKI:0.02
PC:3828e     Total:67910      MisBP:5291   MisRate:7.79%    MPKI:0.02
PC:1ad0c     Total:64797      MisBP:5293   MisRate:8.17%    MPKI:0.02
PC:513b0     Total:45274      MisBP:5325   MisRate:11.76%    MPKI:0.02
PC:18fce     Total:38084      MisBP:5345   MisRate:14.03%    MPKI:0.02
PC:3ad78     Total:48970      MisBP:5355   MisRate:10.94%    MPKI:0.02
PC:1aca4     Total:62208      MisBP:5375   MisRate:8.64%    MPKI:0.02
PC:18bec     Total:414431      MisBP:5440   MisRate:1.31%    MPKI:0.02
PC:18a14     Total:31513      MisBP:5452   MisRate:17.30%    MPKI:0.02
PC:3bfc6     Total:21010      MisBP:5469   MisRate:26.03%    MPKI:0.02
PC:1c300     Total:41216      MisBP:5483   MisRate:13.30%    MPKI:0.02
PC:166b2     Total:45903      MisBP:5499   MisRate:11.98%    MPKI:0.02
PC:37ee2     Total:26943      MisBP:5532   MisRate:20.53%    MPKI:0.02
PC:18066     Total:214969      MisBP:5601   MisRate:2.61%    MPKI:0.02
PC:19018     Total:40907      MisBP:5616   MisRate:13.73%    MPKI:0.02
PC:166a6     Total:43866      MisBP:5636   MisRate:12.85%    MPKI:0.02
PC:38fa8     Total:13625      MisBP:5665   MisRate:41.58%    MPKI:0.02
PC:18f84     Total:35314      MisBP:5678   MisRate:16.08%    MPKI:0.02
PC:3c5cc     Total:92885      MisBP:5684   MisRate:6.12%    MPKI:0.02
PC:9e50c     Total:108399      MisBP:5694   MisRate:5.25%    MPKI:0.02
PC:3ab12     Total:28764      MisBP:5701   MisRate:19.82%    MPKI:0.02
PC:3c7e0     Total:48554      MisBP:5710   MisRate:11.76%    MPKI:0.02
PC:3c66c     Total:69388      MisBP:5817   MisRate:8.38%    MPKI:0.02
PC:3bf76     Total:188061      MisBP:5826   MisRate:3.10%    MPKI:0.02
PC:3d88c     Total:47402      MisBP:5865   MisRate:12.37%    MPKI:0.02
PC:3cfac     Total:37168      MisBP:5900   MisRate:15.87%    MPKI:0.02
PC:18df0     Total:44633      MisBP:5912   MisRate:13.25%    MPKI:0.02
PC:38162     Total:73647      MisBP:5955   MisRate:8.09%    MPKI:0.02
PC:1635e     Total:58146      MisBP:5958   MisRate:10.25%    MPKI:0.02
PC:156fa     Total:90842      MisBP:6027   MisRate:6.63%    MPKI:0.02
PC:38124     Total:45875      MisBP:6210   MisRate:13.54%    MPKI:0.02
PC:1adcc     Total:75543      MisBP:6256   MisRate:8.28%    MPKI:0.02
PC:38692     Total:43732      MisBP:6259   MisRate:14.31%    MPKI:0.02
PC:3d9dc     Total:42863      MisBP:6266   MisRate:14.62%    MPKI:0.02
PC:19a82     Total:386750      MisBP:6272   MisRate:1.62%    MPKI:0.02
PC:3862c     Total:46870      MisBP:6299   MisRate:13.44%    MPKI:0.02
PC:37ed8     Total:38594      MisBP:6310   MisRate:16.35%    MPKI:0.02
PC:1acc2     Total:57046      MisBP:6341   MisRate:11.12%    MPKI:0.02
PC:1b99c     Total:131059      MisBP:6355   MisRate:4.85%    MPKI:0.02
PC:51358     Total:519346      MisBP:6395   MisRate:1.23%    MPKI:0.02
PC:16270     Total:42141      MisBP:6419   MisRate:15.23%    MPKI:0.02
PC:197da     Total:58823      MisBP:6422   MisRate:10.92%    MPKI:0.02
PC:15ca2     Total:48655      MisBP:6466   MisRate:13.29%    MPKI:0.02
PC:1c442     Total:41389      MisBP:6588   MisRate:15.92%    MPKI:0.02
PC:37d52     Total:50778      MisBP:6714   MisRate:13.22%    MPKI:0.02
PC:3817a     Total:36692      MisBP:6864   MisRate:18.71%    MPKI:0.02
PC:17eae     Total:60831      MisBP:6871   MisRate:11.30%    MPKI:0.02
PC:38414     Total:40896      MisBP:6895   MisRate:16.86%    MPKI:0.02
PC:3c74a     Total:107345      MisBP:6920   MisRate:6.45%    MPKI:0.02
PC:15e30     Total:30186      MisBP:7029   MisRate:23.29%    MPKI:0.02
PC:18e00     Total:189679      MisBP:7043   MisRate:3.71%    MPKI:0.02
PC:190a6     Total:42465      MisBP:7156   MisRate:16.85%    MPKI:0.02
PC:380cc     Total:50457      MisBP:7206   MisRate:14.28%    MPKI:0.02
PC:192ea     Total:75509      MisBP:7291   MisRate:9.66%    MPKI:0.02
PC:15e66     Total:41318      MisBP:7317   MisRate:17.71%    MPKI:0.02
PC:15d22     Total:69475      MisBP:7339   MisRate:10.56%    MPKI:0.02
PC:381a4     Total:58391      MisBP:7354   MisRate:12.59%    MPKI:0.02
PC:15942     Total:173174      MisBP:7442   MisRate:4.30%    MPKI:0.02
PC:1c0b6     Total:55768      MisBP:7454   MisRate:13.37%    MPKI:0.02
PC:163b0     Total:56681      MisBP:7496   MisRate:13.22%    MPKI:0.02
PC:3797e     Total:56808      MisBP:7564   MisRate:13.32%    MPKI:0.02
PC:3844a     Total:29780      MisBP:7643   MisRate:25.66%    MPKI:0.02
PC:15bb8     Total:43578      MisBP:7701   MisRate:17.67%    MPKI:0.02
PC:38182     Total:29537      MisBP:7740   MisRate:26.20%    MPKI:0.02
PC:38516     Total:33095      MisBP:7770   MisRate:23.48%    MPKI:0.03
PC:1ad06     Total:70342      MisBP:7828   MisRate:11.13%    MPKI:0.03
PC:3c220     Total:83854      MisBP:7837   MisRate:9.35%    MPKI:0.03
PC:162d0     Total:49384      MisBP:7865   MisRate:15.93%    MPKI:0.03
PC:1b862     Total:42665      MisBP:7870   MisRate:18.45%    MPKI:0.03
PC:381b6     Total:49446      MisBP:7889   MisRate:15.95%    MPKI:0.03
PC:1acbc     Total:67465      MisBP:7947   MisRate:11.78%    MPKI:0.03
PC:3ab1c     Total:26203      MisBP:7966   MisRate:30.40%    MPKI:0.03
PC:1596a     Total:269799      MisBP:8031   MisRate:2.98%    MPKI:0.03
PC:38088     Total:46124      MisBP:8183   MisRate:17.74%    MPKI:0.03
PC:38038     Total:78482      MisBP:8219   MisRate:10.47%    MPKI:0.03
PC:15972     Total:259308      MisBP:8239   MisRate:3.18%    MPKI:0.03
PC:38470     Total:46274      MisBP:8345   MisRate:18.03%    MPKI:0.03
PC:15cac     Total:44875      MisBP:8361   MisRate:18.63%    MPKI:0.03
PC:3809c     Total:40619      MisBP:8547   MisRate:21.04%    MPKI:0.03
PC:1c200     Total:62136      MisBP:8756   MisRate:14.09%    MPKI:0.03
PC:18dfa     Total:62337      MisBP:8785   MisRate:14.09%    MPKI:0.03
PC:3c224     Total:86632      MisBP:8807   MisRate:10.17%    MPKI:0.03
PC:3c7b2     Total:55025      MisBP:8890   MisRate:16.16%    MPKI:0.03
PC:38344     Total:30714      MisBP:8930   MisRate:29.07%    MPKI:0.03
PC:3d8a8     Total:43700      MisBP:9034   MisRate:20.67%    MPKI:0.03
PC:3818c     Total:23851      MisBP:9041   MisRate:37.91%    MPKI:0.03
PC:158ca     Total:76752      MisBP:9198   MisRate:11.98%    MPKI:0.03
PC:19a52     Total:56446      MisBP:9289   MisRate:16.46%    MPKI:0.03
PC:1c15c     Total:78370      MisBP:9330   MisRate:11.91%    MPKI:0.03
PC:15bc0     Total:46202      MisBP:9432   MisRate:20.41%    MPKI:0.03
PC:37e8a     Total:51981      MisBP:9478   MisRate:18.23%    MPKI:0.03
PC:15bd2     Total:52971      MisBP:9500   MisRate:17.93%    MPKI:0.03
PC:51368     Total:303174      MisBP:9509   MisRate:3.14%    MPKI:0.03
PC:162d6     Total:57350      MisBP:9547   MisRate:16.65%    MPKI:0.03
PC:38060     Total:70341      MisBP:9875   MisRate:14.04%    MPKI:0.03
PC:1c04a     Total:115538      MisBP:9907   MisRate:8.57%    MPKI:0.03
PC:3d95a     Total:22381      MisBP:10055   MisRate:44.93%    MPKI:0.03
PC:18dde     Total:55579      MisBP:10137   MisRate:18.24%    MPKI:0.03
PC:17eb8     Total:54888      MisBP:10154   MisRate:18.50%    MPKI:0.03
PC:1615e     Total:113408      MisBP:10214   MisRate:9.01%    MPKI:0.03
PC:3bf88     Total:29611      MisBP:10278   MisRate:34.71%    MPKI:0.03
PC:1973c     Total:73147      MisBP:10358   MisRate:14.16%    MPKI:0.03
PC:38338     Total:62748      MisBP:10489   MisRate:16.72%    MPKI:0.03
PC:379ac     Total:145782      MisBP:10597   MisRate:7.27%    MPKI:0.03
PC:154b2     Total:202711      MisBP:10605   MisRate:5.23%    MPKI:0.03
PC:381c2     Total:58802      MisBP:10653   MisRate:18.12%    MPKI:0.03
PC:164c6     Total:74810      MisBP:10721   MisRate:14.33%    MPKI:0.03
PC:159ce     Total:232731      MisBP:10809   MisRate:4.64%    MPKI:0.03
PC:19a6c     Total:58290      MisBP:10828   MisRate:18.58%    MPKI:0.03
PC:24ccc     Total:180571      MisBP:10854   MisRate:6.01%    MPKI:0.04
PC:199dc     Total:80722      MisBP:10995   MisRate:13.62%    MPKI:0.04
PC:84c10     Total:26958      MisBP:11051   MisRate:40.99%    MPKI:0.04
PC:3850a     Total:50288      MisBP:11187   MisRate:22.25%    MPKI:0.04
PC:3c64a     Total:98164      MisBP:11220   MisRate:11.43%    MPKI:0.04
PC:1c088     Total:65131      MisBP:11287   MisRate:17.33%    MPKI:0.04
PC:1614c     Total:83879      MisBP:11577   MisRate:13.80%    MPKI:0.04
PC:38072     Total:65757      MisBP:11713   MisRate:17.81%    MPKI:0.04
PC:1accc     Total:52401      MisBP:11902   MisRate:22.71%    MPKI:0.04
PC:38104     Total:61285      MisBP:12075   MisRate:19.70%    MPKI:0.04
PC:18cde     Total:232597      MisBP:12082   MisRate:5.19%    MPKI:0.04
PC:187b4     Total:555718      MisBP:12133   MisRate:2.18%    MPKI:0.04
PC:37d34     Total:354823      MisBP:12217   MisRate:3.44%    MPKI:0.04
PC:38172     Total:42466      MisBP:12381   MisRate:29.16%    MPKI:0.04
PC:38a32     Total:46241      MisBP:12495   MisRate:27.02%    MPKI:0.04
PC:18f6a     Total:171522      MisBP:12516   MisRate:7.30%    MPKI:0.04
PC:3ca32     Total:174518      MisBP:12520   MisRate:7.17%    MPKI:0.04
PC:15bea     Total:81524      MisBP:12674   MisRate:15.55%    MPKI:0.04
PC:162e0     Total:64832      MisBP:12718   MisRate:19.62%    MPKI:0.04
PC:3d808     Total:92518      MisBP:12805   MisRate:13.84%    MPKI:0.04
PC:1608e     Total:60934      MisBP:12908   MisRate:21.18%    MPKI:0.04
PC:3c692     Total:101652      MisBP:12993   MisRate:12.78%    MPKI:0.04
PC:15c9c     Total:126290      MisBP:13035   MisRate:10.32%    MPKI:0.04
PC:159d4     Total:201808      MisBP:13300   MisRate:6.59%    MPKI:0.04
PC:382a2     Total:56788      MisBP:13339   MisRate:23.49%    MPKI:0.04
PC:156b6     Total:197741      MisBP:13420   MisRate:6.79%    MPKI:0.04
PC:1ad02     Total:53966      MisBP:13433   MisRate:24.89%    MPKI:0.04
PC:19754     Total:78715      MisBP:13441   MisRate:17.08%    MPKI:0.04
PC:15e94     Total:52373      MisBP:13607   MisRate:25.98%    MPKI:0.04
PC:1b7f0     Total:129233      MisBP:13628   MisRate:10.55%    MPKI:0.04
PC:197f4     Total:62062      MisBP:13703   MisRate:22.08%    MPKI:0.04
PC:37ce2     Total:95018      MisBP:13821   MisRate:14.55%    MPKI:0.04
PC:38030     Total:89865      MisBP:13920   MisRate:15.49%    MPKI:0.04
PC:1acf6     Total:55175      MisBP:13923   MisRate:25.23%    MPKI:0.04
PC:382d0     Total:69658      MisBP:13928   MisRate:19.99%    MPKI:0.04
PC:159e8     Total:206399      MisBP:13932   MisRate:6.75%    MPKI:0.04
PC:1c1d2     Total:84414      MisBP:14131   MisRate:16.74%    MPKI:0.05
PC:3807e     Total:74718      MisBP:14309   MisRate:19.15%    MPKI:0.05
PC:164b4     Total:76479      MisBP:14343   MisRate:18.75%    MPKI:0.05
PC:37ce8     Total:86573      MisBP:14359   MisRate:16.59%    MPKI:0.05
PC:3829a     Total:65686      MisBP:14390   MisRate:21.91%    MPKI:0.05
PC:3804c     Total:112814      MisBP:14409   MisRate:12.77%    MPKI:0.05
PC:3816a     Total:61362      MisBP:14467   MisRate:23.58%    MPKI:0.05
PC:1acb8     Total:52156      MisBP:14615   MisRate:28.02%    MPKI:0.05
PC:1bfe2     Total:242995      MisBP:14695   MisRate:6.05%    MPKI:0.05
PC:3c298     Total:82008      MisBP:14783   MisRate:18.03%    MPKI:0.05
PC:1bf82     Total:118759      MisBP:14936   MisRate:12.58%    MPKI:0.05
PC:17db0     Total:133324      MisBP:14937   MisRate:11.20%    MPKI:0.05
PC:3ab02     Total:94755      MisBP:14964   MisRate:15.79%    MPKI:0.05
PC:1a78a     Total:64728      MisBP:14983   MisRate:23.15%    MPKI:0.05
PC:176c2     Total:255443      MisBP:15083   MisRate:5.90%    MPKI:0.05
PC:1c01e     Total:150624      MisBP:15911   MisRate:10.56%    MPKI:0.05
PC:379b0     Total:146803      MisBP:15996   MisRate:10.90%    MPKI:0.05
PC:1acaa     Total:58790      MisBP:16420   MisRate:27.93%    MPKI:0.05
PC:3819c     Total:99215      MisBP:16697   MisRate:16.83%    MPKI:0.05
PC:16138     Total:127224      MisBP:16728   MisRate:13.15%    MPKI:0.05
PC:16198     Total:107082      MisBP:16793   MisRate:15.68%    MPKI:0.05
PC:15c92     Total:136545      MisBP:16864   MisRate:12.35%    MPKI:0.05
PC:192ac     Total:153203      MisBP:17267   MisRate:11.27%    MPKI:0.06
PC:512ba     Total:159561      MisBP:17406   MisRate:10.91%    MPKI:0.06
PC:37d84     Total:271117      MisBP:17518   MisRate:6.46%    MPKI:0.06
PC:18d56     Total:137854      MisBP:17651   MisRate:12.80%    MPKI:0.06
PC:199f6     Total:108933      MisBP:18062   MisRate:16.58%    MPKI:0.06
PC:14e10     Total:77252      MisBP:18333   MisRate:23.73%    MPKI:0.06
PC:1b830     Total:73809      MisBP:18596   MisRate:25.19%    MPKI:0.06
PC:1ace0     Total:119505      MisBP:18701   MisRate:15.65%    MPKI:0.06
PC:17de6     Total:110960      MisBP:18896   MisRate:17.03%    MPKI:0.06
PC:159ee     Total:208183      MisBP:18931   MisRate:9.09%    MPKI:0.06
PC:1c12c     Total:127652      MisBP:19117   MisRate:14.98%    MPKI:0.06
PC:37ca4     Total:88049      MisBP:19351   MisRate:21.98%    MPKI:0.06
PC:38052     Total:112472      MisBP:19490   MisRate:17.33%    MPKI:0.06
PC:380fe     Total:98577      MisBP:19703   MisRate:19.99%    MPKI:0.06
PC:192e0     Total:150266      MisBP:20361   MisRate:13.55%    MPKI:0.07
PC:1aca0     Total:88030      MisBP:20913   MisRate:23.76%    MPKI:0.07
PC:14e64     Total:127276      MisBP:20932   MisRate:16.45%    MPKI:0.07
PC:1925a     Total:133417      MisBP:21056   MisRate:15.78%    MPKI:0.07
PC:14ee6     Total:146832      MisBP:21104   MisRate:14.37%    MPKI:0.07
PC:3ca34     Total:145232      MisBP:21162   MisRate:14.57%    MPKI:0.07
PC:1576e     Total:122310      MisBP:21333   MisRate:17.44%    MPKI:0.07
PC:3806a     Total:118984      MisBP:21479   MisRate:18.05%    MPKI:0.07
PC:1acd6     Total:116701      MisBP:21627   MisRate:18.53%    MPKI:0.07
PC:37d2e     Total:390191      MisBP:21961   MisRate:5.63%    MPKI:0.07
PC:51360     Total:519946      MisBP:22297   MisRate:4.29%    MPKI:0.07
PC:18bb2     Total:147414      MisBP:22559   MisRate:15.30%    MPKI:0.07
PC:37de0     Total:203353      MisBP:22845   MisRate:11.23%    MPKI:0.07
PC:3ca14     Total:160777      MisBP:23197   MisRate:14.43%    MPKI:0.07
PC:15b50     Total:107904      MisBP:23539   MisRate:21.81%    MPKI:0.08
PC:14ea4     Total:140788      MisBP:24519   MisRate:17.42%    MPKI:0.08
PC:15950     Total:180721      MisBP:24729   MisRate:13.68%    MPKI:0.08
PC:1b7f4     Total:118576      MisBP:24837   MisRate:20.95%    MPKI:0.08
PC:159f8     Total:225378      MisBP:25163   MisRate:11.16%    MPKI:0.08
PC:18d34     Total:220459      MisBP:25596   MisRate:11.61%    MPKI:0.08
PC:154ac     Total:194815      MisBP:25698   MisRate:13.19%    MPKI:0.08
PC:18d4c     Total:162590      MisBP:25952   MisRate:15.96%    MPKI:0.08
PC:19614     Total:301229      MisBP:26035   MisRate:8.64%    MPKI:0.08
PC:19314     Total:164681      MisBP:26077   MisRate:15.83%    MPKI:0.08
PC:37d8c     Total:233133      MisBP:26190   MisRate:11.23%    MPKI:0.08
PC:18d3e     Total:183405      MisBP:26522   MisRate:14.46%    MPKI:0.09
PC:14f26     Total:152066      MisBP:26609   MisRate:17.50%    MPKI:0.09
PC:17fcc     Total:271947      MisBP:26854   MisRate:9.87%    MPKI:0.09
PC:15a08     Total:241336      MisBP:27383   MisRate:11.35%    MPKI:0.09
PC:18d6a     Total:105509      MisBP:27513   MisRate:26.08%    MPKI:0.09
PC:37d48     Total:297284      MisBP:28031   MisRate:9.43%    MPKI:0.09
PC:3bf7c     Total:178773      MisBP:28138   MisRate:15.74%    MPKI:0.09
PC:1bf88     Total:107223      MisBP:28334   MisRate:26.43%    MPKI:0.09
PC:155e6     Total:153241      MisBP:28643   MisRate:18.69%    MPKI:0.09
PC:18d72     Total:123755      MisBP:29607   MisRate:23.92%    MPKI:0.10
PC:382aa     Total:110039      MisBP:29647   MisRate:26.94%    MPKI:0.10
PC:15a0e     Total:250468      MisBP:29726   MisRate:11.87%    MPKI:0.10
PC:159fe     Total:224584      MisBP:29876   MisRate:13.30%    MPKI:0.10
PC:15a1e     Total:114674      MisBP:29952   MisRate:26.12%    MPKI:0.10
PC:3c6e4     Total:142434      MisBP:30042   MisRate:21.09%    MPKI:0.10
PC:17e74     Total:121782      MisBP:30264   MisRate:24.85%    MPKI:0.10
PC:18d76     Total:141384      MisBP:31501   MisRate:22.28%    MPKI:0.10
PC:14f62     Total:159639      MisBP:32036   MisRate:20.07%    MPKI:0.10
PC:37da0     Total:194150      MisBP:32505   MisRate:16.74%    MPKI:0.10
PC:3ca0a     Total:222961      MisBP:32532   MisRate:14.59%    MPKI:0.10
PC:188ca     Total:238252      MisBP:34914   MisRate:14.65%    MPKI:0.11
PC:3c73a     Total:245769      MisBP:35286   MisRate:14.36%    MPKI:0.11
PC:154a2     Total:193434      MisBP:35428   MisRate:18.32%    MPKI:0.11
PC:157ba     Total:126555      MisBP:36062   MisRate:28.50%    MPKI:0.12
PC:1bfe8     Total:222080      MisBP:37336   MisRate:16.81%    MPKI:0.12
PC:15964     Total:245439      MisBP:40323   MisRate:16.43%    MPKI:0.13
PC:1595a     Total:207281      MisBP:42257   MisRate:20.39%    MPKI:0.14
PC:156e4     Total:279052      MisBP:42674   MisRate:15.29%    MPKI:0.14
PC:18bda     Total:371839      MisBP:44908   MisRate:12.08%    MPKI:0.14
PC:512b6     Total:491969      MisBP:45705   MisRate:9.29%    MPKI:0.15
PC:1bfa8     Total:175293      MisBP:47170   MisRate:26.91%    MPKI:0.15
PC:156a4     Total:252912      MisBP:48102   MisRate:19.02%    MPKI:0.16
PC:15a16     Total:208391      MisBP:49301   MisRate:23.66%    MPKI:0.16
PC:14fb8     Total:1093607      MisBP:49454   MisRate:4.52%    MPKI:0.16
PC:37d7c     Total:366862      MisBP:49789   MisRate:13.57%    MPKI:0.16
PC:17dac     Total:208634      MisBP:51702   MisRate:24.78%    MPKI:0.17
PC:14fa8     Total:238658      MisBP:53180   MisRate:22.28%    MPKI:0.17
PC:1bfca     Total:222120      MisBP:54055   MisRate:24.34%    MPKI:0.17
PC:15b40     Total:259821      MisBP:59639   MisRate:22.95%    MPKI:0.19
PC:37de6     Total:439917      MisBP:60435   MisRate:13.74%    MPKI:0.19
PC:24cc8     Total:296462      MisBP:61719   MisRate:20.82%    MPKI:0.20
PC:18bde     Total:419589      MisBP:62605   MisRate:14.92%    MPKI:0.20
PC:37e7a     Total:1356155      MisBP:69362   MisRate:5.11%    MPKI:0.22
PC:512ac     Total:804258      MisBP:74416   MisRate:9.25%    MPKI:0.24
PC:14fb2     Total:1006047      MisBP:80600   MisRate:8.01%    MPKI:0.26
PC:1a934     Total:481182      MisBP:108595   MisRate:22.57%    MPKI:0.35
PC:17694     Total:3459746      MisBP:165176   MisRate:4.77%    MPKI:0.53
Totfetch:613880311  TotInsts:310000000  TotMis : inf%   MPKI : 18.33
=============finish sim!!!!!!=============
Done running SimPoint!
