Global frequency set at 1000000000000 ticks per second
 Register [printBranch()] ExitCallback !!!!!!! 
gem5 Simulator System.  https://www.gem5.org
gem5 is copyrighted software; use the --copyright option for details.

gem5 version 22.0.0.2
gem5 compiled Sep  7 2022 00:42:18
gem5 started Sep  7 2022 21:55:15
gem5 executing on a100, pid 3271610
command line: /data/zxf/gem5/gem5-prof/build/ARM/gem5.fast --outdir=/data/zxf/checkpoint/spec2006/458.sjeng/prof/sjeng_ckp_1 /data/zxf/gem5/gem5-prof/configs/example/se.py --cpu-type O3CPU --cpu-clock 1GHz --num-cpu 1 --l1d-hwp-type=BOPPrefetcher --caches --l2cache --l1i_size 32kB --l1d_size 32kB --l2_size 1MB --l1i_assoc 8 --l1d_assoc 8 --l2_assoc 16 --cacheline_size 64 --mem-type DDR3_2133_8x8 --mem-size 16GB --restore-simpoint-checkpoint -r 1 --checkpoint-dir /data/zxf/checkpoint/spec2006/458.sjeng/ckpt -c sjeng_base.gcc41-64bit -o ref.txt

info: Standard input is not a terminal, disabling listeners.
Resuming from /data/zxf/checkpoint/spec2006/458.sjeng/ckpt/cpt.simpoint_00_inst_0_weight_0.018519_interval_300000000_warmup_0
Resuming from SimPoint #0, start_inst:0, weight:0.018519, interval:300000000, warmup:0
Switch at curTick count:10000
Switched CPUS @ tick 1000
[(<m5.objects.ArmCPU.ArmAtomicSimpleCPU object at 0x7f5f590ec970>, <m5.objects.ArmCPU.ArmO3CPU object at 0x7f5f59105be0>)]
switching cpus



+++++++++++++++++++++++++zxf print simpoint+++++++++++++++++++++++++++
Warmed up! Dumping and resetting stats!


=============start sim!!!!!!=============

Sjeng version SPEC 1.0, Copyright (C) 2000-2005 Gian-Carlo Pascutto

SPEC Workload

  +----+----+----+----+----+----+----+----+
8 | *R |    |    |    | *K | *B |    | *R |
  +----+----+----+----+----+----+----+----+
7 |    | *B | *Q |    |    | *P |  R |    |
  +----+----+----+----+----+----+----+----+
6 | *P |    |    |    |    |  P |    |    |
  +----+----+----+----+----+----+----+----+
5 |    |    |    |  P | *P |    |    | *P |
  +----+----+----+----+----+----+----+----+
4 |    | *P |    |    |    |    |    |    |
  +----+----+----+----+----+----+----+----+
3 |    |    |    |    |    |    |  Q |  B |
  +----+----+----+----+----+----+----+----+
2 |  P |  P |  P |    |    |    |    |  P |
  +----+----+----+----+----+----+----+----+
1 |    |    |  K |  R |    |    |    |    |
  +----+----+----+----+----+----+----+----+

     a    b    c    d    e    f    g    h

EPD: r3kb1r/1bq2pR1/p4P2/3Pp2p/1p6/6QB/PPP4P/2KR4 b kq - bm Rd8 h4; id "CCC-ANAL-2";

Searching to 12 ply
Middlegame phase.
Time for move : 1000000
 2  2.45       200 Bxg7 fxg7 Rg8 
 2  2.45       993 Bxg7 fxg7 Rg8 
 3  2.10      1259 Bxg7 ??
 3  2.11      1724 Rd8 !
 3  2.44      3553 Rd8 Be6 Bxg7 fxg7 
 4  2.45      5553 Rd8 Be6 Bxg7 fxg7 Rg8 
 4  2.46      8782 h4 !
 4  2.45     11179 Rd8 Be6 Bxg7 fxg7 Rg8 
 5  2.21     21737 Rd8 Qb3 Qa5 c4 Bxg7 fxg7 
PC:1cc22     Total:805      MisBP:0   MisRate:0.00%    MPKI:0.00
PC:12b44     Total:7288      MisBP:0   MisRate:0.00%    MPKI:0.00
PC:1cc3c     Total:803      MisBP:0   MisRate:0.00%    MPKI:0.00
PC:1cc3a     Total:804      MisBP:0   MisRate:0.00%    MPKI:0.00
PC:1cc36     Total:805      MisBP:0   MisRate:0.00%    MPKI:0.00
PC:1cc32     Total:805      MisBP:0   MisRate:0.00%    MPKI:0.00
PC:1cc2e     Total:805      MisBP:0   MisRate:0.00%    MPKI:0.00
PC:1cc2c     Total:805      MisBP:0   MisRate:0.00%    MPKI:0.00
PC:1cc28     Total:805      MisBP:0   MisRate:0.00%    MPKI:0.00
PC:1cc24     Total:805      MisBP:0   MisRate:0.00%    MPKI:0.00
PC:1cd6a     Total:48      MisBP:0   MisRate:0.00%    MPKI:0.00
PC:1cc1c     Total:965      MisBP:0   MisRate:0.00%    MPKI:0.00
PC:1cc16     Total:455      MisBP:0   MisRate:0.00%    MPKI:0.00
PC:1cc10     Total:1003      MisBP:0   MisRate:0.00%    MPKI:0.00
PC:1cc0e     Total:1003      MisBP:0   MisRate:0.00%    MPKI:0.00
PC:1cc0c     Total:1004      MisBP:0   MisRate:0.00%    MPKI:0.00
PC:1cc0a     Total:1004      MisBP:0   MisRate:0.00%    MPKI:0.00
PC:1cc06     Total:973      MisBP:0   MisRate:0.00%    MPKI:0.00
PC:1cc02     Total:973      MisBP:0   MisRate:0.00%    MPKI:0.00
PC:1cbfe     Total:973      MisBP:0   MisRate:0.00%    MPKI:0.00
PC:1cd7a     Total:47      MisBP:0   MisRate:0.00%    MPKI:0.00
PC:1cc62     Total:759      MisBP:0   MisRate:0.00%    MPKI:0.00
PC:1cc5e     Total:759      MisBP:0   MisRate:0.00%    MPKI:0.00
PC:1cc56     Total:762      MisBP:0   MisRate:0.00%    MPKI:0.00
PC:1cc4c     Total:762      MisBP:0   MisRate:0.00%    MPKI:0.00
PC:1cc42     Total:762      MisBP:0   MisRate:0.00%    MPKI:0.00
PC:12b5c     Total:535      MisBP:0   MisRate:0.00%    MPKI:0.00
PC:1cd7e     Total:47      MisBP:0   MisRate:0.00%    MPKI:0.00
PC:12b5a     Total:537      MisBP:0   MisRate:0.00%    MPKI:0.00
PC:1cd7c     Total:47      MisBP:0   MisRate:0.00%    MPKI:0.00
PC:1cbfc     Total:1025      MisBP:0   MisRate:0.00%    MPKI:0.00
PC:12b56     Total:550      MisBP:0   MisRate:0.00%    MPKI:0.00
PC:1cd78     Total:48      MisBP:0   MisRate:0.00%    MPKI:0.00
PC:12b52     Total:566      MisBP:0   MisRate:0.00%    MPKI:0.00
PC:1cd74     Total:48      MisBP:0   MisRate:0.00%    MPKI:0.00
PC:12b4e     Total:566      MisBP:0   MisRate:0.00%    MPKI:0.00
PC:1cd70     Total:48      MisBP:0   MisRate:0.00%    MPKI:0.00
PC:1cd6e     Total:48      MisBP:0   MisRate:0.00%    MPKI:0.00
PC:12b4a     Total:1058      MisBP:0   MisRate:0.00%    MPKI:0.00
PC:1cd6c     Total:48      MisBP:0   MisRate:0.00%    MPKI:0.00
PC:1cb82     Total:257      MisBP:0   MisRate:0.00%    MPKI:0.00
PC:1cba0     Total:254      MisBP:0   MisRate:0.00%    MPKI:0.00
PC:1cb9e     Total:254      MisBP:0   MisRate:0.00%    MPKI:0.00
PC:1cb9a     Total:254      MisBP:0   MisRate:0.00%    MPKI:0.00
PC:1cb96     Total:257      MisBP:0   MisRate:0.00%    MPKI:0.00
PC:1cb92     Total:257      MisBP:0   MisRate:0.00%    MPKI:0.00
PC:1cb8e     Total:257      MisBP:0   MisRate:0.00%    MPKI:0.00
PC:1cb8c     Total:257      MisBP:0   MisRate:0.00%    MPKI:0.00
PC:1cb8a     Total:257      MisBP:0   MisRate:0.00%    MPKI:0.00
PC:1cb86     Total:257      MisBP:0   MisRate:0.00%    MPKI:0.00
PC:1cba2     Total:254      MisBP:0   MisRate:0.00%    MPKI:0.00
PC:1cb7e     Total:257      MisBP:0   MisRate:0.00%    MPKI:0.00
PC:1cb7c     Total:266      MisBP:0   MisRate:0.00%    MPKI:0.00
PC:1cb7a     Total:266      MisBP:0   MisRate:0.00%    MPKI:0.00
PC:1cb78     Total:266      MisBP:0   MisRate:0.00%    MPKI:0.00
PC:1cb76     Total:266      MisBP:0   MisRate:0.00%    MPKI:0.00
PC:1cb72     Total:266      MisBP:0   MisRate:0.00%    MPKI:0.00
PC:1e576     Total:210      MisBP:0   MisRate:0.00%    MPKI:0.00
PC:1cb6e     Total:129108      MisBP:0   MisRate:0.00%    MPKI:0.00
PC:1cb6c     Total:18444      MisBP:0   MisRate:0.00%    MPKI:0.00
PC:1cc9e     Total:1216      MisBP:0   MisRate:0.00%    MPKI:0.00
PC:1cbf8     Total:1025      MisBP:0   MisRate:0.00%    MPKI:0.00
PC:1cbf6     Total:1025      MisBP:0   MisRate:0.00%    MPKI:0.00
PC:1cbf4     Total:1026      MisBP:0   MisRate:0.00%    MPKI:0.00
PC:1cbf0     Total:1022      MisBP:0   MisRate:0.00%    MPKI:0.00
PC:1ccbe     Total:1701      MisBP:0   MisRate:0.00%    MPKI:0.00
PC:1ccb4     Total:10914      MisBP:0   MisRate:0.00%    MPKI:0.00
PC:1ccb0     Total:1179      MisBP:0   MisRate:0.00%    MPKI:0.00
PC:1ccac     Total:1179      MisBP:0   MisRate:0.00%    MPKI:0.00
PC:1cca2     Total:1209      MisBP:0   MisRate:0.00%    MPKI:0.00
PC:1cc66     Total:759      MisBP:0   MisRate:0.00%    MPKI:0.00
PC:1cbbc     Total:88      MisBP:0   MisRate:0.00%    MPKI:0.00
PC:1cbb8     Total:88      MisBP:0   MisRate:0.00%    MPKI:0.00
PC:1cbb4     Total:88      MisBP:0   MisRate:0.00%    MPKI:0.00
PC:1cbb2     Total:253      MisBP:0   MisRate:0.00%    MPKI:0.00
PC:1cbae     Total:254      MisBP:0   MisRate:0.00%    MPKI:0.00
PC:1cbac     Total:254      MisBP:0   MisRate:0.00%    MPKI:0.00
PC:1cbaa     Total:254      MisBP:0   MisRate:0.00%    MPKI:0.00
PC:1cba6     Total:254      MisBP:0   MisRate:0.00%    MPKI:0.00
PC:12b84     Total:421      MisBP:0   MisRate:0.00%    MPKI:0.00
PC:1cdb8     Total:64      MisBP:0   MisRate:0.00%    MPKI:0.00
PC:12b92     Total:411      MisBP:0   MisRate:0.00%    MPKI:0.00
PC:1cdb4     Total:64      MisBP:0   MisRate:0.00%    MPKI:0.00
PC:12b8e     Total:412      MisBP:0   MisRate:0.00%    MPKI:0.00
PC:1cdb0     Total:74      MisBP:0   MisRate:0.00%    MPKI:0.00
PC:1cdae     Total:76      MisBP:0   MisRate:0.00%    MPKI:0.00
PC:1cdaa     Total:76      MisBP:0   MisRate:0.00%    MPKI:0.00
PC:12b86     Total:413      MisBP:0   MisRate:0.00%    MPKI:0.00
PC:1cda8     Total:76      MisBP:0   MisRate:0.00%    MPKI:0.00
PC:1cdba     Total:64      MisBP:0   MisRate:0.00%    MPKI:0.00
PC:1cda6     Total:76      MisBP:0   MisRate:0.00%    MPKI:0.00
PC:12b82     Total:421      MisBP:0   MisRate:0.00%    MPKI:0.00
PC:1cda4     Total:76      MisBP:0   MisRate:0.00%    MPKI:0.00
PC:12b7e     Total:421      MisBP:0   MisRate:0.00%    MPKI:0.00
PC:1cda0     Total:76      MisBP:0   MisRate:0.00%    MPKI:0.00
PC:1cd9e     Total:76      MisBP:0   MisRate:0.00%    MPKI:0.00
PC:1cd9a     Total:76      MisBP:0   MisRate:0.00%    MPKI:0.00
PC:1cbee     Total:23      MisBP:0   MisRate:0.00%    MPKI:0.00
PC:1cbec     Total:23      MisBP:0   MisRate:0.00%    MPKI:0.00
PC:1cdca     Total:62      MisBP:0   MisRate:0.00%    MPKI:0.00
PC:20144     Total:43956      MisBP:0   MisRate:0.00%    MPKI:0.00
PC:20140     Total:43957      MisBP:0   MisRate:0.00%    MPKI:0.00
PC:2013c     Total:45214      MisBP:0   MisRate:0.00%    MPKI:0.00
PC:15f16     Total:11      MisBP:0   MisRate:0.00%    MPKI:0.00
PC:20138     Total:461693      MisBP:0   MisRate:0.00%    MPKI:0.00
PC:12bac     Total:678      MisBP:0   MisRate:0.00%    MPKI:0.00
PC:1cdce     Total:62      MisBP:0   MisRate:0.00%    MPKI:0.00
PC:12baa     Total:680      MisBP:0   MisRate:0.00%    MPKI:0.00
PC:1cdcc     Total:62      MisBP:0   MisRate:0.00%    MPKI:0.00
PC:1cbea     Total:23      MisBP:0   MisRate:0.00%    MPKI:0.00
PC:12ba6     Total:680      MisBP:0   MisRate:0.00%    MPKI:0.00
PC:1cdc8     Total:62      MisBP:0   MisRate:0.00%    MPKI:0.00
PC:1cdc6     Total:62      MisBP:0   MisRate:0.00%    MPKI:0.00
PC:1cdc2     Total:62      MisBP:0   MisRate:0.00%    MPKI:0.00
PC:12b9e     Total:709      MisBP:0   MisRate:0.00%    MPKI:0.00
PC:1cdc0     Total:62      MisBP:0   MisRate:0.00%    MPKI:0.00
PC:12b9a     Total:866      MisBP:0   MisRate:0.00%    MPKI:0.00
PC:1cdbc     Total:64      MisBP:0   MisRate:0.00%    MPKI:0.00
PC:12b98     Total:866      MisBP:0   MisRate:0.00%    MPKI:0.00
PC:12bb6     Total:648      MisBP:0   MisRate:0.00%    MPKI:0.00
PC:1cdee     Total:167      MisBP:0   MisRate:0.00%    MPKI:0.00
PC:12bca     Total:410      MisBP:0   MisRate:0.00%    MPKI:0.00
PC:1cdec     Total:167      MisBP:0   MisRate:0.00%    MPKI:0.00
PC:12bc6     Total:410      MisBP:0   MisRate:0.00%    MPKI:0.00
PC:1cde8     Total:169      MisBP:0   MisRate:0.00%    MPKI:0.00
PC:1cde4     Total:169      MisBP:0   MisRate:0.00%    MPKI:0.00
PC:1cde0     Total:169      MisBP:0   MisRate:0.00%    MPKI:0.00
PC:12bb8     Total:486      MisBP:0   MisRate:0.00%    MPKI:0.00
PC:1cdda     Total:251      MisBP:0   MisRate:0.00%    MPKI:0.00
PC:12bcc     Total:410      MisBP:0   MisRate:0.00%    MPKI:0.00
PC:1cdd8     Total:251      MisBP:0   MisRate:0.00%    MPKI:0.00
PC:12bb2     Total:648      MisBP:0   MisRate:0.00%    MPKI:0.00
PC:1cdd4     Total:251      MisBP:0   MisRate:0.00%    MPKI:0.00
PC:1cdd0     Total:251      MisBP:0   MisRate:0.00%    MPKI:0.00
PC:1cc82     Total:732      MisBP:0   MisRate:0.00%    MPKI:0.00
PC:1cc7e     Total:732      MisBP:0   MisRate:0.00%    MPKI:0.00
PC:1cc7a     Total:760      MisBP:0   MisRate:0.00%    MPKI:0.00
PC:1cc6e     Total:759      MisBP:0   MisRate:0.00%    MPKI:0.00
PC:1cc6a     Total:759      MisBP:0   MisRate:0.00%    MPKI:0.00
PC:1cbc8     Total:77      MisBP:0   MisRate:0.00%    MPKI:0.00
PC:1cbe6     Total:23      MisBP:0   MisRate:0.00%    MPKI:0.00
PC:1cbe2     Total:23      MisBP:0   MisRate:0.00%    MPKI:0.00
PC:1cbde     Total:23      MisBP:0   MisRate:0.00%    MPKI:0.00
PC:1cbd8     Total:77      MisBP:0   MisRate:0.00%    MPKI:0.00
PC:1cbd6     Total:77      MisBP:0   MisRate:0.00%    MPKI:0.00
PC:1cbd4     Total:77      MisBP:0   MisRate:0.00%    MPKI:0.00
PC:1cbd2     Total:77      MisBP:0   MisRate:0.00%    MPKI:0.00
PC:1cbce     Total:77      MisBP:0   MisRate:0.00%    MPKI:0.00
PC:1cbca     Total:77      MisBP:0   MisRate:0.00%    MPKI:0.00
PC:1cb68     Total:285      MisBP:0   MisRate:0.00%    MPKI:0.00
PC:1cbc6     Total:77      MisBP:0   MisRate:0.00%    MPKI:0.00
PC:1cbc4     Total:77      MisBP:0   MisRate:0.00%    MPKI:0.00
PC:1cbc0     Total:77      MisBP:0   MisRate:0.00%    MPKI:0.00
PC:1cdfa     Total:20      MisBP:0   MisRate:0.00%    MPKI:0.00
PC:1cdf8     Total:20      MisBP:0   MisRate:0.00%    MPKI:0.00
PC:1cdf6     Total:167      MisBP:0   MisRate:0.00%    MPKI:0.00
PC:1cdf4     Total:167      MisBP:0   MisRate:0.00%    MPKI:0.00
PC:1cdf2     Total:167      MisBP:0   MisRate:0.00%    MPKI:0.00
PC:12d7e     Total:1230      MisBP:0   MisRate:0.00%    MPKI:0.00
PC:1e402     Total:3      MisBP:0   MisRate:0.00%    MPKI:0.00
PC:141de     Total:19910      MisBP:0   MisRate:0.00%    MPKI:0.00
PC:1e400     Total:15      MisBP:0   MisRate:0.00%    MPKI:0.00
PC:32c76     Total:12      MisBP:0   MisRate:0.00%    MPKI:0.00
PC:1d03a     Total:962      MisBP:0   MisRate:0.00%    MPKI:0.00
PC:1d038     Total:962      MisBP:0   MisRate:0.00%    MPKI:0.00
PC:12e16     Total:13548      MisBP:0   MisRate:0.00%    MPKI:0.00
PC:2768c     Total:6      MisBP:0   MisRate:0.00%    MPKI:0.00
PC:1cfa0     Total:19476      MisBP:0   MisRate:0.00%    MPKI:0.00
PC:28a56     Total:1      MisBP:0   MisRate:0.00%    MPKI:0.00
PC:12d7a     Total:1230      MisBP:0   MisRate:0.00%    MPKI:0.00
PC:1cf9a     Total:19580      MisBP:0   MisRate:0.00%    MPKI:0.00
PC:12d78     Total:1232      MisBP:0   MisRate:0.00%    MPKI:0.00
PC:12d76     Total:1234      MisBP:0   MisRate:0.00%    MPKI:0.00
PC:1cf96     Total:19407      MisBP:0   MisRate:0.00%    MPKI:0.00
PC:12d74     Total:1234      MisBP:0   MisRate:0.00%    MPKI:0.00
PC:1cf94     Total:19407      MisBP:0   MisRate:0.00%    MPKI:0.00
PC:12d72     Total:1234      MisBP:0   MisRate:0.00%    MPKI:0.00
PC:12d70     Total:1237      MisBP:0   MisRate:0.00%    MPKI:0.00
PC:32c86     Total:11      MisBP:0   MisRate:0.00%    MPKI:0.00
PC:141f8     Total:2      MisBP:0   MisRate:0.00%    MPKI:0.00
PC:1e41a     Total:6      MisBP:0   MisRate:0.00%    MPKI:0.00
PC:32c90     Total:11      MisBP:0   MisRate:0.00%    MPKI:0.00
PC:141f4     Total:2      MisBP:0   MisRate:0.00%    MPKI:0.00
PC:1e416     Total:3      MisBP:0   MisRate:0.00%    MPKI:0.00
PC:141f0     Total:2      MisBP:0   MisRate:0.00%    MPKI:0.00
PC:1e412     Total:3      MisBP:0   MisRate:0.00%    MPKI:0.00
PC:141ee     Total:2      MisBP:0   MisRate:0.00%    MPKI:0.00
PC:1e410     Total:3      MisBP:0   MisRate:0.00%    MPKI:0.00
PC:12d6c     Total:1237      MisBP:0   MisRate:0.00%    MPKI:0.00
PC:141ec     Total:2      MisBP:0   MisRate:0.00%    MPKI:0.00
PC:1e40e     Total:3      MisBP:0   MisRate:0.00%    MPKI:0.00
PC:32c84     Total:11      MisBP:0   MisRate:0.00%    MPKI:0.00
PC:1e40a     Total:3      MisBP:0   MisRate:0.00%    MPKI:0.00
PC:32c80     Total:22      MisBP:0   MisRate:0.00%    MPKI:0.00
PC:141e4     Total:2      MisBP:0   MisRate:0.00%    MPKI:0.00
PC:28a5a     Total:1      MisBP:0   MisRate:0.00%    MPKI:0.00
PC:1e406     Total:3      MisBP:0   MisRate:0.00%    MPKI:0.00
PC:141e0     Total:2      MisBP:0   MisRate:0.00%    MPKI:0.00
PC:1e3bc     Total:6      MisBP:0   MisRate:0.00%    MPKI:0.00
PC:32c5c     Total:32      MisBP:0   MisRate:0.00%    MPKI:0.00
PC:1e3e4     Total:6      MisBP:0   MisRate:0.00%    MPKI:0.00
PC:1e3e2     Total:6      MisBP:0   MisRate:0.00%    MPKI:0.00
PC:32c58     Total:32      MisBP:0   MisRate:0.00%    MPKI:0.00
PC:1e3e0     Total:6      MisBP:0   MisRate:0.00%    MPKI:0.00
PC:32c56     Total:32      MisBP:0   MisRate:0.00%    MPKI:0.00
PC:1e3de     Total:6      MisBP:0   MisRate:0.00%    MPKI:0.00
PC:1e3ce     Total:6      MisBP:0   MisRate:0.00%    MPKI:0.00
PC:32c44     Total:9      MisBP:0   MisRate:0.00%    MPKI:0.00
PC:1e3e6     Total:6      MisBP:0   MisRate:0.00%    MPKI:0.00
PC:32c32     Total:34      MisBP:0   MisRate:0.00%    MPKI:0.00
PC:1e3b2     Total:6      MisBP:0   MisRate:0.00%    MPKI:0.00
PC:32c28     Total:8      MisBP:0   MisRate:0.00%    MPKI:0.00
PC:1e39c     Total:6      MisBP:0   MisRate:0.00%    MPKI:0.00
PC:32c12     Total:1      MisBP:0   MisRate:0.00%    MPKI:0.00
PC:1e394     Total:6      MisBP:0   MisRate:0.00%    MPKI:0.00
PC:1e38e     Total:6      MisBP:0   MisRate:0.00%    MPKI:0.00
PC:1e38a     Total:18      MisBP:0   MisRate:0.00%    MPKI:0.00
PC:1e384     Total:6      MisBP:0   MisRate:0.00%    MPKI:0.00
PC:1e3f8     Total:12      MisBP:0   MisRate:0.00%    MPKI:0.00
PC:12d68     Total:1237      MisBP:0   MisRate:0.00%    MPKI:0.00
PC:12d64     Total:1237      MisBP:0   MisRate:0.00%    MPKI:0.00
PC:12d60     Total:1238      MisBP:0   MisRate:0.00%    MPKI:0.00
PC:1cf80     Total:19320      MisBP:0   MisRate:0.00%    MPKI:0.00
PC:1cf7c     Total:200342      MisBP:0   MisRate:0.00%    MPKI:0.00
PC:12d5a     Total:12954      MisBP:0   MisRate:0.00%    MPKI:0.00
PC:141da     Total:20301      MisBP:0   MisRate:0.00%    MPKI:0.00
PC:1e3fc     Total:4      MisBP:0   MisRate:0.00%    MPKI:0.00
PC:1e3fa     Total:4      MisBP:0   MisRate:0.00%    MPKI:0.00
PC:1e41e     Total:3      MisBP:0   MisRate:0.00%    MPKI:0.00
PC:1e3f6     Total:4      MisBP:0   MisRate:0.00%    MPKI:0.00
PC:32c6c     Total:31      MisBP:0   MisRate:0.00%    MPKI:0.00
PC:1e3f2     Total:4      MisBP:0   MisRate:0.00%    MPKI:0.00
PC:32c68     Total:32      MisBP:0   MisRate:0.00%    MPKI:0.00
PC:1e3ec     Total:6      MisBP:0   MisRate:0.00%    MPKI:0.00
PC:1e3ea     Total:6      MisBP:0   MisRate:0.00%    MPKI:0.00
PC:32c60     Total:32      MisBP:0   MisRate:0.00%    MPKI:0.00
PC:1e3e8     Total:6      MisBP:0   MisRate:0.00%    MPKI:0.00
PC:1e488     Total:13      MisBP:0   MisRate:0.00%    MPKI:0.00
PC:1e4a2     Total:12      MisBP:0   MisRate:0.00%    MPKI:0.00
PC:1e4a0     Total:12      MisBP:0   MisRate:0.00%    MPKI:0.00
PC:1e49c     Total:13      MisBP:0   MisRate:0.00%    MPKI:0.00
PC:1e49a     Total:13      MisBP:0   MisRate:0.00%    MPKI:0.00
PC:1e496     Total:13      MisBP:0   MisRate:0.00%    MPKI:0.00
PC:1e494     Total:13      MisBP:0   MisRate:0.00%    MPKI:0.00
PC:1e492     Total:13      MisBP:0   MisRate:0.00%    MPKI:0.00
PC:1e48e     Total:13      MisBP:0   MisRate:0.00%    MPKI:0.00
PC:1e48c     Total:13      MisBP:0   MisRate:0.00%    MPKI:0.00
PC:1e4a6     Total:12      MisBP:0   MisRate:0.00%    MPKI:0.00
PC:1e486     Total:2      MisBP:0   MisRate:0.00%    MPKI:0.00
PC:1e484     Total:2      MisBP:0   MisRate:0.00%    MPKI:0.00
PC:1e482     Total:2      MisBP:0   MisRate:0.00%    MPKI:0.00
PC:1e480     Total:2      MisBP:0   MisRate:0.00%    MPKI:0.00
PC:1e47e     Total:3      MisBP:0   MisRate:0.00%    MPKI:0.00
PC:1e47a     Total:3      MisBP:0   MisRate:0.00%    MPKI:0.00
PC:1e476     Total:3      MisBP:0   MisRate:0.00%    MPKI:0.00
PC:1e474     Total:3      MisBP:0   MisRate:0.00%    MPKI:0.00
PC:1e470     Total:14      MisBP:0   MisRate:0.00%    MPKI:0.00
PC:1e4c2     Total:9      MisBP:0   MisRate:0.00%    MPKI:0.00
PC:1cb66     Total:285      MisBP:0   MisRate:0.00%    MPKI:0.00
PC:1cb64     Total:285      MisBP:0   MisRate:0.00%    MPKI:0.00
PC:1cb62     Total:285      MisBP:0   MisRate:0.00%    MPKI:0.00
PC:1cb60     Total:285      MisBP:0   MisRate:0.00%    MPKI:0.00
PC:1e4f0     Total:10      MisBP:0   MisRate:0.00%    MPKI:0.00
PC:1e4e8     Total:10      MisBP:0   MisRate:0.00%    MPKI:0.00
PC:1e4d4     Total:9      MisBP:0   MisRate:0.00%    MPKI:0.00
PC:1e4ca     Total:9      MisBP:0   MisRate:0.00%    MPKI:0.00
PC:1e4c6     Total:9      MisBP:0   MisRate:0.00%    MPKI:0.00
PC:1e46c     Total:6      MisBP:0   MisRate:0.00%    MPKI:0.00
PC:1e4be     Total:9      MisBP:0   MisRate:0.00%    MPKI:0.00
PC:1e4bc     Total:12      MisBP:0   MisRate:0.00%    MPKI:0.00
PC:1e4ba     Total:12      MisBP:0   MisRate:0.00%    MPKI:0.00
PC:1e4b8     Total:12      MisBP:0   MisRate:0.00%    MPKI:0.00
PC:1e4b4     Total:12      MisBP:0   MisRate:0.00%    MPKI:0.00
PC:1e4b0     Total:12      MisBP:0   MisRate:0.00%    MPKI:0.00
PC:1e4ae     Total:12      MisBP:0   MisRate:0.00%    MPKI:0.00
PC:1e4aa     Total:12      MisBP:0   MisRate:0.00%    MPKI:0.00
PC:1e42a     Total:2      MisBP:0   MisRate:0.00%    MPKI:0.00
PC:1e43a     Total:6      MisBP:0   MisRate:0.00%    MPKI:0.00
PC:32cb0     Total:2      MisBP:0   MisRate:0.00%    MPKI:0.00
PC:1e436     Total:6      MisBP:0   MisRate:0.00%    MPKI:0.00
PC:32cac     Total:2      MisBP:0   MisRate:0.00%    MPKI:0.00
PC:1e432     Total:6      MisBP:0   MisRate:0.00%    MPKI:0.00
PC:32ca8     Total:2      MisBP:0   MisRate:0.00%    MPKI:0.00
PC:1e430     Total:6      MisBP:0   MisRate:0.00%    MPKI:0.00
PC:32ca6     Total:2      MisBP:0   MisRate:0.00%    MPKI:0.00
PC:1e42c     Total:14      MisBP:0   MisRate:0.00%    MPKI:0.00
PC:32cb4     Total:2      MisBP:0   MisRate:0.00%    MPKI:0.00
PC:32ca0     Total:2      MisBP:0   MisRate:0.00%    MPKI:0.00
PC:1e426     Total:2      MisBP:0   MisRate:0.00%    MPKI:0.00
PC:32c9c     Total:2      MisBP:0   MisRate:0.00%    MPKI:0.00
PC:1e424     Total:2      MisBP:0   MisRate:0.00%    MPKI:0.00
PC:32c9a     Total:2      MisBP:0   MisRate:0.00%    MPKI:0.00
PC:1e422     Total:3      MisBP:0   MisRate:0.00%    MPKI:0.00
PC:32c98     Total:2      MisBP:0   MisRate:0.00%    MPKI:0.00
PC:141fc     Total:2      MisBP:0   MisRate:0.00%    MPKI:0.00
PC:28a72     Total:227      MisBP:0   MisRate:0.00%    MPKI:0.00
PC:1e450     Total:6      MisBP:0   MisRate:0.00%    MPKI:0.00
PC:1e468     Total:6      MisBP:0   MisRate:0.00%    MPKI:0.00
PC:1e464     Total:6      MisBP:0   MisRate:0.00%    MPKI:0.00
PC:1e462     Total:6      MisBP:0   MisRate:0.00%    MPKI:0.00
PC:1e460     Total:6      MisBP:0   MisRate:0.00%    MPKI:0.00
PC:1e45e     Total:6      MisBP:0   MisRate:0.00%    MPKI:0.00
PC:1e45c     Total:6      MisBP:0   MisRate:0.00%    MPKI:0.00
PC:1e458     Total:6      MisBP:0   MisRate:0.00%    MPKI:0.00
PC:1e456     Total:6      MisBP:0   MisRate:0.00%    MPKI:0.00
PC:1e452     Total:6      MisBP:0   MisRate:0.00%    MPKI:0.00
PC:15f22     Total:10      MisBP:0   MisRate:0.00%    MPKI:0.00
PC:1e44c     Total:6      MisBP:0   MisRate:0.00%    MPKI:0.00
PC:1e44a     Total:6      MisBP:0   MisRate:0.00%    MPKI:0.00
PC:1e446     Total:6      MisBP:0   MisRate:0.00%    MPKI:0.00
PC:1e444     Total:6      MisBP:0   MisRate:0.00%    MPKI:0.00
PC:32cba     Total:2      MisBP:0   MisRate:0.00%    MPKI:0.00
PC:1e440     Total:6      MisBP:0   MisRate:0.00%    MPKI:0.00
PC:32cb6     Total:6      MisBP:0   MisRate:0.00%    MPKI:0.00
PC:1e43e     Total:6      MisBP:0   MisRate:0.00%    MPKI:0.00
PC:15fd0     Total:4      MisBP:0   MisRate:0.00%    MPKI:0.00
PC:201fe     Total:25901      MisBP:0   MisRate:0.00%    MPKI:0.00
PC:15fda     Total:4      MisBP:0   MisRate:0.00%    MPKI:0.00
PC:201fc     Total:25838      MisBP:0   MisRate:0.00%    MPKI:0.00
PC:201fa     Total:24063      MisBP:0   MisRate:0.00%    MPKI:0.00
PC:15fd6     Total:4      MisBP:0   MisRate:0.00%    MPKI:0.00
PC:201f8     Total:24063      MisBP:0   MisRate:0.00%    MPKI:0.00
PC:201f6     Total:24063      MisBP:0   MisRate:0.00%    MPKI:0.00
PC:15fd2     Total:4      MisBP:0   MisRate:0.00%    MPKI:0.00
PC:201f4     Total:24065      MisBP:0   MisRate:0.00%    MPKI:0.00
PC:1ff7e     Total:244331      MisBP:0   MisRate:0.00%    MPKI:0.00
PC:201f2     Total:24065      MisBP:0   MisRate:0.00%    MPKI:0.00
PC:15fce     Total:4      MisBP:0   MisRate:0.00%    MPKI:0.00
PC:201f0     Total:25146      MisBP:0   MisRate:0.00%    MPKI:0.00
PC:15fca     Total:213      MisBP:0   MisRate:0.00%    MPKI:0.00
PC:201ec     Total:25146      MisBP:0   MisRate:0.00%    MPKI:0.00
PC:15fc6     Total:2339      MisBP:0   MisRate:0.00%    MPKI:0.00
PC:201e8     Total:25146      MisBP:0   MisRate:0.00%    MPKI:0.00
PC:15fc2     Total:2339      MisBP:0   MisRate:0.00%    MPKI:0.00
PC:201e4     Total:25146      MisBP:0   MisRate:0.00%    MPKI:0.00
PC:20262     Total:34596      MisBP:0   MisRate:0.00%    MPKI:0.00
PC:20276     Total:10656      MisBP:0   MisRate:0.00%    MPKI:0.00
PC:16052     Total:300      MisBP:0   MisRate:0.00%    MPKI:0.00
PC:20274     Total:10567      MisBP:0   MisRate:0.00%    MPKI:0.00
PC:20272     Total:10567      MisBP:0   MisRate:0.00%    MPKI:0.00
PC:2026e     Total:10567      MisBP:0   MisRate:0.00%    MPKI:0.00
PC:1604a     Total:2473      MisBP:0   MisRate:0.00%    MPKI:0.00
PC:20268     Total:34595      MisBP:0   MisRate:0.00%    MPKI:0.00
PC:16042     Total:2860      MisBP:0   MisRate:0.00%    MPKI:0.00
PC:20264     Total:34596      MisBP:0   MisRate:0.00%    MPKI:0.00
PC:201e0     Total:25146      MisBP:0   MisRate:0.00%    MPKI:0.00
PC:1603c     Total:3384      MisBP:0   MisRate:0.00%    MPKI:0.00
PC:2025e     Total:36071      MisBP:0   MisRate:0.00%    MPKI:0.00
PC:1603a     Total:81      MisBP:0   MisRate:0.00%    MPKI:0.00
PC:2025c     Total:36073      MisBP:0   MisRate:0.00%    MPKI:0.00
PC:16038     Total:82      MisBP:0   MisRate:0.00%    MPKI:0.00
PC:2025a     Total:36073      MisBP:0   MisRate:0.00%    MPKI:0.00
PC:15d62     Total:1      MisBP:0   MisRate:0.00%    MPKI:0.00
PC:1ff82     Total:244331      MisBP:0   MisRate:0.00%    MPKI:0.00
PC:15d5c     Total:1      MisBP:0   MisRate:0.00%    MPKI:0.00
PC:1ff8c     Total:263063      MisBP:0   MisRate:0.00%    MPKI:0.00
PC:1ff9e     Total:1220      MisBP:0   MisRate:0.00%    MPKI:0.00
PC:15d78     Total:1      MisBP:0   MisRate:0.00%    MPKI:0.00
PC:1ff9a     Total:1220      MisBP:0   MisRate:0.00%    MPKI:0.00
PC:15d76     Total:1      MisBP:0   MisRate:0.00%    MPKI:0.00
PC:1ff98     Total:1243      MisBP:0   MisRate:0.00%    MPKI:0.00
PC:1ff94     Total:1243      MisBP:0   MisRate:0.00%    MPKI:0.00
PC:15d70     Total:1      MisBP:0   MisRate:0.00%    MPKI:0.00
PC:15d6e     Total:1      MisBP:0   MisRate:0.00%    MPKI:0.00
PC:1ff90     Total:263063      MisBP:0   MisRate:0.00%    MPKI:0.00
PC:15d7c     Total:1107      MisBP:0   MisRate:0.00%    MPKI:0.00
PC:15d68     Total:2      MisBP:0   MisRate:0.00%    MPKI:0.00
PC:1ff8a     Total:263064      MisBP:0   MisRate:0.00%    MPKI:0.00
PC:15d64     Total:1      MisBP:0   MisRate:0.00%    MPKI:0.00
PC:1ff86     Total:526130      MisBP:0   MisRate:0.00%    MPKI:0.00
PC:1ff7c     Total:251652      MisBP:0   MisRate:0.00%    MPKI:0.00
PC:15d56     Total:161      MisBP:0   MisRate:0.00%    MPKI:0.00
PC:1ff78     Total:251652      MisBP:0   MisRate:0.00%    MPKI:0.00
PC:15d52     Total:170      MisBP:0   MisRate:0.00%    MPKI:0.00
PC:2a5c8     Total:2      MisBP:0   MisRate:0.00%    MPKI:0.00
PC:15fa4     Total:422      MisBP:0   MisRate:0.00%    MPKI:0.00
PC:201dc     Total:25147      MisBP:0   MisRate:0.00%    MPKI:0.00
PC:201d8     Total:25147      MisBP:0   MisRate:0.00%    MPKI:0.00
PC:201d4     Total:25147      MisBP:0   MisRate:0.00%    MPKI:0.00
PC:15fb0     Total:422      MisBP:0   MisRate:0.00%    MPKI:0.00
PC:201d2     Total:25180      MisBP:0   MisRate:0.00%    MPKI:0.00
PC:15fac     Total:422      MisBP:0   MisRate:0.00%    MPKI:0.00
PC:201ce     Total:25180      MisBP:0   MisRate:0.00%    MPKI:0.00
PC:15fa8     Total:422      MisBP:0   MisRate:0.00%    MPKI:0.00
PC:201c8     Total:30948      MisBP:0   MisRate:0.00%    MPKI:0.00
PC:16054     Total:972      MisBP:0   MisRate:0.00%    MPKI:0.00
PC:201c6     Total:30948      MisBP:0   MisRate:0.00%    MPKI:0.00
PC:201c4     Total:30948      MisBP:0   MisRate:0.00%    MPKI:0.00
PC:201c2     Total:30948      MisBP:0   MisRate:0.00%    MPKI:0.00
PC:201be     Total:30948      MisBP:0   MisRate:0.00%    MPKI:0.00
PC:1ffac     Total:234624      MisBP:0   MisRate:0.00%    MPKI:0.00
PC:15d86     Total:31      MisBP:0   MisRate:0.00%    MPKI:0.00
PC:1ffa8     Total:67075      MisBP:0   MisRate:0.00%    MPKI:0.00
PC:1ffa2     Total:1220      MisBP:0   MisRate:0.00%    MPKI:0.00
PC:20108     Total:40427      MisBP:0   MisRate:0.00%    MPKI:0.00
PC:15ef2     Total:1314      MisBP:0   MisRate:0.00%    MPKI:0.00
PC:20114     Total:34652      MisBP:0   MisRate:0.00%    MPKI:0.00
PC:20112     Total:34653      MisBP:0   MisRate:0.00%    MPKI:0.00
PC:15eee     Total:1316      MisBP:0   MisRate:0.00%    MPKI:0.00
PC:20110     Total:34816      MisBP:0   MisRate:0.00%    MPKI:0.00
PC:15eec     Total:1317      MisBP:0   MisRate:0.00%    MPKI:0.00
PC:2010c     Total:40378      MisBP:0   MisRate:0.00%    MPKI:0.00
PC:15ee8     Total:111      MisBP:0   MisRate:0.00%    MPKI:0.00
PC:2010a     Total:40388      MisBP:0   MisRate:0.00%    MPKI:0.00
PC:20118     Total:34652      MisBP:0   MisRate:0.00%    MPKI:0.00
PC:20104     Total:40427      MisBP:0   MisRate:0.00%    MPKI:0.00
PC:15ee0     Total:159      MisBP:0   MisRate:0.00%    MPKI:0.00
PC:20102     Total:40427      MisBP:0   MisRate:0.00%    MPKI:0.00
PC:20100     Total:40441      MisBP:0   MisRate:0.00%    MPKI:0.00
PC:15edc     Total:159      MisBP:0   MisRate:0.00%    MPKI:0.00
PC:200fe     Total:40861      MisBP:0   MisRate:0.00%    MPKI:0.00
PC:200fc     Total:40861      MisBP:0   MisRate:0.00%    MPKI:0.00
PC:15ed8     Total:159      MisBP:0   MisRate:0.00%    MPKI:0.00
PC:200fa     Total:40861      MisBP:0   MisRate:0.00%    MPKI:0.00
PC:2012e     Total:34620      MisBP:0   MisRate:0.00%    MPKI:0.00
PC:2028a     Total:10502      MisBP:0   MisRate:0.00%    MPKI:0.00
PC:16066     Total:5013      MisBP:0   MisRate:0.00%    MPKI:0.00
PC:20288     Total:10502      MisBP:0   MisRate:0.00%    MPKI:0.00
PC:16062     Total:34      MisBP:0   MisRate:0.00%    MPKI:0.00
PC:20284     Total:10502      MisBP:0   MisRate:0.00%    MPKI:0.00
PC:1605e     Total:34      MisBP:0   MisRate:0.00%    MPKI:0.00
PC:20280     Total:10502      MisBP:0   MisRate:0.00%    MPKI:0.00
PC:15f0e     Total:11      MisBP:0   MisRate:0.00%    MPKI:0.00
PC:20130     Total:173564      MisBP:0   MisRate:0.00%    MPKI:0.00
PC:200f8     Total:40874      MisBP:0   MisRate:0.00%    MPKI:0.00
PC:2012a     Total:34622      MisBP:0   MisRate:0.00%    MPKI:0.00
PC:15f04     Total:624      MisBP:0   MisRate:0.00%    MPKI:0.00
PC:20126     Total:69297      MisBP:0   MisRate:0.00%    MPKI:0.00
PC:20122     Total:34652      MisBP:0   MisRate:0.00%    MPKI:0.00
PC:15efe     Total:156      MisBP:0   MisRate:0.00%    MPKI:0.00
PC:20120     Total:34652      MisBP:0   MisRate:0.00%    MPKI:0.00
PC:15efa     Total:178      MisBP:0   MisRate:0.00%    MPKI:0.00
PC:2011c     Total:34652      MisBP:0   MisRate:0.00%    MPKI:0.00
PC:15ef6     Total:178      MisBP:0   MisRate:0.00%    MPKI:0.00
PC:200be     Total:35388      MisBP:0   MisRate:0.00%    MPKI:0.00
PC:15eac     Total:3667      MisBP:0   MisRate:0.00%    MPKI:0.00
PC:200ce     Total:35387      MisBP:0   MisRate:0.00%    MPKI:0.00
PC:15ea8     Total:3667      MisBP:0   MisRate:0.00%    MPKI:0.00
PC:200ca     Total:35387      MisBP:0   MisRate:0.00%    MPKI:0.00
PC:15ea4     Total:3667      MisBP:0   MisRate:0.00%    MPKI:0.00
PC:200c6     Total:35387      MisBP:0   MisRate:0.00%    MPKI:0.00
PC:15ea0     Total:3667      MisBP:0   MisRate:0.00%    MPKI:0.00
PC:200c2     Total:35387      MisBP:0   MisRate:0.00%    MPKI:0.00
PC:15e9c     Total:3667      MisBP:0   MisRate:0.00%    MPKI:0.00
PC:200d2     Total:35387      MisBP:0   MisRate:0.00%    MPKI:0.00
PC:200ba     Total:35622      MisBP:0   MisRate:0.00%    MPKI:0.00
PC:200b6     Total:35623      MisBP:0   MisRate:0.00%    MPKI:0.00
PC:200b2     Total:35749      MisBP:0   MisRate:0.00%    MPKI:0.00
PC:15e8e     Total:3701      MisBP:0   MisRate:0.00%    MPKI:0.00
PC:200b0     Total:214494      MisBP:0   MisRate:0.00%    MPKI:0.00
PC:200ac     Total:35749      MisBP:0   MisRate:0.00%    MPKI:0.00
PC:1605a     Total:34      MisBP:0   MisRate:0.00%    MPKI:0.00
PC:2027c     Total:10618      MisBP:0   MisRate:0.00%    MPKI:0.00
PC:20278     Total:10623      MisBP:0   MisRate:0.00%    MPKI:0.00
PC:15ec4     Total:8      MisBP:0   MisRate:0.00%    MPKI:0.00
PC:200f4     Total:9831      MisBP:0   MisRate:0.00%    MPKI:0.00
PC:15ece     Total:161      MisBP:0   MisRate:0.00%    MPKI:0.00
PC:200f0     Total:9831      MisBP:0   MisRate:0.00%    MPKI:0.00
PC:15ecc     Total:8      MisBP:0   MisRate:0.00%    MPKI:0.00
PC:200ee     Total:31393      MisBP:0   MisRate:0.00%    MPKI:0.00
PC:15eca     Total:8      MisBP:0   MisRate:0.00%    MPKI:0.00
PC:200ec     Total:31394      MisBP:0   MisRate:0.00%    MPKI:0.00
PC:15ec8     Total:8      MisBP:0   MisRate:0.00%    MPKI:0.00
PC:200ea     Total:31394      MisBP:0   MisRate:0.00%    MPKI:0.00
PC:1ff74     Total:251653      MisBP:0   MisRate:0.00%    MPKI:0.00
PC:200e6     Total:31398      MisBP:0   MisRate:0.00%    MPKI:0.00
PC:15ec2     Total:8      MisBP:0   MisRate:0.00%    MPKI:0.00
PC:200e4     Total:31400      MisBP:0   MisRate:0.00%    MPKI:0.00
PC:200e0     Total:31400      MisBP:0   MisRate:0.00%    MPKI:0.00
PC:200dc     Total:31402      MisBP:0   MisRate:0.00%    MPKI:0.00
PC:15eb8     Total:348      MisBP:0   MisRate:0.00%    MPKI:0.00
PC:200da     Total:35386      MisBP:0   MisRate:0.00%    MPKI:0.00
PC:200d6     Total:35387      MisBP:0   MisRate:0.00%    MPKI:0.00
PC:15f6c     Total:1623      MisBP:0   MisRate:0.00%    MPKI:0.00
PC:201a4     Total:38908      MisBP:0   MisRate:0.00%    MPKI:0.00
PC:201a2     Total:38911      MisBP:0   MisRate:0.00%    MPKI:0.00
PC:2019e     Total:38911      MisBP:0   MisRate:0.00%    MPKI:0.00
PC:15f78     Total:326      MisBP:0   MisRate:0.00%    MPKI:0.00
PC:2019a     Total:38914      MisBP:0   MisRate:0.00%    MPKI:0.00
PC:20196     Total:38915      MisBP:0   MisRate:0.00%    MPKI:0.00
PC:15f70     Total:810      MisBP:0   MisRate:0.00%    MPKI:0.00
PC:20192     Total:38915      MisBP:0   MisRate:0.00%    MPKI:0.00
PC:20190     Total:39679      MisBP:0   MisRate:0.00%    MPKI:0.00
PC:201a6     Total:38902      MisBP:0   MisRate:0.00%    MPKI:0.00
PC:2018e     Total:39680      MisBP:0   MisRate:0.00%    MPKI:0.00
PC:2018c     Total:39513      MisBP:0   MisRate:0.00%    MPKI:0.00
PC:15f68     Total:196      MisBP:0   MisRate:0.00%    MPKI:0.00
PC:2018a     Total:39525      MisBP:0   MisRate:0.00%    MPKI:0.00
PC:20186     Total:39527      MisBP:0   MisRate:0.00%    MPKI:0.00
PC:15f62     Total:228      MisBP:0   MisRate:0.00%    MPKI:0.00
PC:20184     Total:39528      MisBP:0   MisRate:0.00%    MPKI:0.00
PC:20182     Total:39529      MisBP:0   MisRate:0.00%    MPKI:0.00
PC:15f5e     Total:228      MisBP:0   MisRate:0.00%    MPKI:0.00
PC:1fe58     Total:37371      MisBP:0   MisRate:0.00%    MPKI:0.00
PC:15c62     Total:16702      MisBP:0   MisRate:0.00%    MPKI:0.00
PC:1fe84     Total:172530      MisBP:0   MisRate:0.00%    MPKI:0.00
PC:15c5e     Total:2158      MisBP:0   MisRate:0.00%    MPKI:0.00
PC:1fe80     Total:345060      MisBP:0   MisRate:0.00%    MPKI:0.00
PC:1fe7c     Total:37291      MisBP:0   MisRate:0.00%    MPKI:0.00
PC:15c56     Total:2162      MisBP:0   MisRate:0.00%    MPKI:0.00
PC:1fe78     Total:37292      MisBP:0   MisRate:0.00%    MPKI:0.00
PC:1fe74     Total:37292      MisBP:0   MisRate:0.00%    MPKI:0.00
PC:1fe70     Total:37292      MisBP:0   MisRate:0.00%    MPKI:0.00
PC:20180     Total:39529      MisBP:0   MisRate:0.00%    MPKI:0.00
PC:15c2e     Total:1757      MisBP:0   MisRate:0.00%    MPKI:0.00
PC:1fe50     Total:37850      MisBP:0   MisRate:0.00%    MPKI:0.00
PC:201ba     Total:31047      MisBP:0   MisRate:0.00%    MPKI:0.00
PC:201b8     Total:31047      MisBP:0   MisRate:0.00%    MPKI:0.00
PC:201b6     Total:31047      MisBP:0   MisRate:0.00%    MPKI:0.00
PC:201b2     Total:31047      MisBP:0   MisRate:0.00%    MPKI:0.00
PC:201ae     Total:31047      MisBP:0   MisRate:0.00%    MPKI:0.00
PC:201ac     Total:31047      MisBP:0   MisRate:0.00%    MPKI:0.00
PC:201aa     Total:31047      MisBP:0   MisRate:0.00%    MPKI:0.00
PC:20154     Total:43951      MisBP:0   MisRate:0.00%    MPKI:0.00
PC:15f3c     Total:106      MisBP:0   MisRate:0.00%    MPKI:0.00
PC:2015e     Total:43926      MisBP:0   MisRate:0.00%    MPKI:0.00
PC:15f38     Total:106      MisBP:0   MisRate:0.00%    MPKI:0.00
PC:2015a     Total:43926      MisBP:0   MisRate:0.00%    MPKI:0.00
PC:15f36     Total:106      MisBP:0   MisRate:0.00%    MPKI:0.00
PC:20158     Total:43627      MisBP:0   MisRate:0.00%    MPKI:0.00
PC:15f34     Total:1      MisBP:0   MisRate:0.00%    MPKI:0.00
PC:20156     Total:43627      MisBP:0   MisRate:0.00%    MPKI:0.00
PC:15f32     Total:1      MisBP:0   MisRate:0.00%    MPKI:0.00
PC:20160     Total:43915      MisBP:0   MisRate:0.00%    MPKI:0.00
PC:15f30     Total:1      MisBP:0   MisRate:0.00%    MPKI:0.00
PC:20152     Total:43952      MisBP:0   MisRate:0.00%    MPKI:0.00
PC:20150     Total:43952      MisBP:0   MisRate:0.00%    MPKI:0.00
PC:15f2a     Total:1      MisBP:0   MisRate:0.00%    MPKI:0.00
PC:2014c     Total:43954      MisBP:0   MisRate:0.00%    MPKI:0.00
PC:15f28     Total:10      MisBP:0   MisRate:0.00%    MPKI:0.00
PC:2014a     Total:43956      MisBP:0   MisRate:0.00%    MPKI:0.00
PC:15f24     Total:10      MisBP:0   MisRate:0.00%    MPKI:0.00
PC:20146     Total:43956      MisBP:0   MisRate:0.00%    MPKI:0.00
PC:20170     Total:42539      MisBP:0   MisRate:0.00%    MPKI:0.00
PC:15f5a     Total:228      MisBP:0   MisRate:0.00%    MPKI:0.00
PC:2017c     Total:42883      MisBP:0   MisRate:0.00%    MPKI:0.00
PC:2017a     Total:42884      MisBP:0   MisRate:0.00%    MPKI:0.00
PC:15f56     Total:228      MisBP:0   MisRate:0.00%    MPKI:0.00
PC:20178     Total:42505      MisBP:0   MisRate:0.00%    MPKI:0.00
PC:15f54     Total:228      MisBP:0   MisRate:0.00%    MPKI:0.00
PC:20176     Total:42530      MisBP:0   MisRate:0.00%    MPKI:0.00
PC:20174     Total:42534      MisBP:0   MisRate:0.00%    MPKI:0.00
PC:15f4e     Total:242      MisBP:0   MisRate:0.00%    MPKI:0.00
PC:1fe88     Total:172527      MisBP:0   MisRate:0.00%    MPKI:0.00
PC:15f4c     Total:6      MisBP:0   MisRate:0.00%    MPKI:0.00
PC:2016e     Total:42562      MisBP:0   MisRate:0.00%    MPKI:0.00
PC:15f48     Total:6      MisBP:0   MisRate:0.00%    MPKI:0.00
PC:2016a     Total:42563      MisBP:0   MisRate:0.00%    MPKI:0.00
PC:20168     Total:43893      MisBP:0   MisRate:0.00%    MPKI:0.00
PC:15f42     Total:6      MisBP:0   MisRate:0.00%    MPKI:0.00
PC:20164     Total:43900      MisBP:0   MisRate:0.00%    MPKI:0.00
PC:20162     Total:43902      MisBP:0   MisRate:0.00%    MPKI:0.00
PC:1ff26     Total:142282      MisBP:0   MisRate:0.00%    MPKI:0.00
PC:1ff4a     Total:287919      MisBP:0   MisRate:0.00%    MPKI:0.00
PC:2a14e     Total:1      MisBP:0   MisRate:0.00%    MPKI:0.00
PC:15d0a     Total:162      MisBP:0   MisRate:0.00%    MPKI:0.00
PC:2a580     Total:1      MisBP:0   MisRate:0.00%    MPKI:0.00
PC:1ff2c     Total:214083      MisBP:0   MisRate:0.00%    MPKI:0.00
PC:1ff2a     Total:137954      MisBP:0   MisRate:0.00%    MPKI:0.00
PC:2a148     Total:1      MisBP:0   MisRate:0.00%    MPKI:0.00
PC:15d04     Total:162      MisBP:0   MisRate:0.00%    MPKI:0.00
PC:2a57a     Total:1      MisBP:0   MisRate:0.00%    MPKI:0.00
PC:2a59e     Total:2      MisBP:0   MisRate:0.00%    MPKI:0.00
PC:2a146     Total:1      MisBP:0   MisRate:0.00%    MPKI:0.00
PC:158d0     Total:10      MisBP:0   MisRate:0.00%    MPKI:0.00
PC:2a578     Total:1      MisBP:0   MisRate:0.00%    MPKI:0.00
PC:15d00     Total:420      MisBP:0   MisRate:0.00%    MPKI:0.00
PC:2a576     Total:1      MisBP:0   MisRate:0.00%    MPKI:0.00
PC:1ff22     Total:153391      MisBP:0   MisRate:0.00%    MPKI:0.00
PC:2a142     Total:1      MisBP:0   MisRate:0.00%    MPKI:0.00
PC:15cfe     Total:3577      MisBP:0   MisRate:0.00%    MPKI:0.00
PC:2a574     Total:1      MisBP:0   MisRate:0.00%    MPKI:0.00
PC:15d44     Total:220      MisBP:0   MisRate:0.00%    MPKI:0.00
PC:15d4e     Total:342      MisBP:0   MisRate:0.00%    MPKI:0.00
PC:2a5c4     Total:2      MisBP:0   MisRate:0.00%    MPKI:0.00
PC:1ff70     Total:251654      MisBP:0   MisRate:0.00%    MPKI:0.00
PC:15d4a     Total:121      MisBP:0   MisRate:0.00%    MPKI:0.00
PC:2a5c0     Total:1      MisBP:0   MisRate:0.00%    MPKI:0.00
PC:1ff6c     Total:251654      MisBP:0   MisRate:0.00%    MPKI:0.00
PC:1ff6a     Total:251654      MisBP:0   MisRate:0.00%    MPKI:0.00
PC:2a5bc     Total:2      MisBP:0   MisRate:0.00%    MPKI:0.00
PC:1ff68     Total:251654      MisBP:0   MisRate:0.00%    MPKI:0.00
PC:15cf4     Total:900      MisBP:0   MisRate:0.00%    MPKI:0.00
PC:2a5ba     Total:2      MisBP:0   MisRate:0.00%    MPKI:0.00
PC:1ff66     Total:48752      MisBP:0   MisRate:0.00%    MPKI:0.00
PC:15d40     Total:220      MisBP:0   MisRate:0.00%    MPKI:0.00
PC:1ff62     Total:48752      MisBP:0   MisRate:0.00%    MPKI:0.00
PC:15d3c     Total:284      MisBP:0   MisRate:0.00%    MPKI:0.00
PC:2a5b2     Total:3      MisBP:0   MisRate:0.00%    MPKI:0.00
PC:1ff5e     Total:48752      MisBP:0   MisRate:0.00%    MPKI:0.00
PC:15d28     Total:83      MisBP:0   MisRate:0.00%    MPKI:0.00
PC:2a4f0     Total:1      MisBP:0   MisRate:0.00%    MPKI:0.00
PC:1feca     Total:366470      MisBP:0   MisRate:0.00%    MPKI:0.00
PC:1feb8     Total:280942      MisBP:0   MisRate:0.00%    MPKI:0.00
PC:1fea8     Total:158912      MisBP:0   MisRate:0.00%    MPKI:0.00
PC:15c82     Total:16303      MisBP:0   MisRate:0.00%    MPKI:0.00
PC:2a4f8     Total:1      MisBP:0   MisRate:0.00%    MPKI:0.00
PC:1fea4     Total:158912      MisBP:0   MisRate:0.00%    MPKI:0.00
PC:15c7e     Total:16303      MisBP:0   MisRate:0.00%    MPKI:0.00
PC:2a4f4     Total:1      MisBP:0   MisRate:0.00%    MPKI:0.00
PC:15c7a     Total:16699      MisBP:0   MisRate:0.00%    MPKI:0.00
PC:1fed8     Total:353870      MisBP:0   MisRate:0.00%    MPKI:0.00
PC:1fe9c     Total:160347      MisBP:0   MisRate:0.00%    MPKI:0.00
PC:15c78     Total:16699      MisBP:0   MisRate:0.00%    MPKI:0.00
PC:2a4ee     Total:1      MisBP:0   MisRate:0.00%    MPKI:0.00
PC:1fe9a     Total:160361      MisBP:0   MisRate:0.00%    MPKI:0.00
PC:15c70     Total:16702      MisBP:0   MisRate:0.00%    MPKI:0.00
PC:2a4e6     Total:1      MisBP:0   MisRate:0.00%    MPKI:0.00
PC:1fe92     Total:169749      MisBP:0   MisRate:0.00%    MPKI:0.00
PC:15c6c     Total:16702      MisBP:0   MisRate:0.00%    MPKI:0.00
PC:1fe8c     Total:172515      MisBP:0   MisRate:0.00%    MPKI:0.00
PC:20034     Total:11627      MisBP:0   MisRate:0.00%    MPKI:0.00
PC:2a56a     Total:1      MisBP:0   MisRate:0.00%    MPKI:0.00
PC:15cee     Total:484      MisBP:0   MisRate:0.00%    MPKI:0.00
PC:2a564     Total:1      MisBP:0   MisRate:0.00%    MPKI:0.00
PC:1ff10     Total:160465      MisBP:0   MisRate:0.00%    MPKI:0.00
PC:15ce8     Total:484      MisBP:0   MisRate:0.00%    MPKI:0.00
PC:1ff0a     Total:164787      MisBP:0   MisRate:0.00%    MPKI:0.00
PC:2003e     Total:826      MisBP:0   MisRate:0.00%    MPKI:0.00
PC:15e16     Total:3752      MisBP:0   MisRate:0.00%    MPKI:0.00
PC:20038     Total:11627      MisBP:0   MisRate:0.00%    MPKI:0.00
PC:1f8aa     Total:1      MisBP:0   MisRate:0.00%    MPKI:0.00
PC:20030     Total:11627      MisBP:0   MisRate:0.00%    MPKI:0.00
PC:15e0c     Total:3752      MisBP:0   MisRate:0.00%    MPKI:0.00
PC:2002e     Total:11627      MisBP:0   MisRate:0.00%    MPKI:0.00
PC:15e08     Total:3752      MisBP:0   MisRate:0.00%    MPKI:0.00
PC:2002a     Total:11627      MisBP:0   MisRate:0.00%    MPKI:0.00
PC:1fec6     Total:259266      MisBP:0   MisRate:0.00%    MPKI:0.00
PC:3473c     Total:630      MisBP:0   MisRate:0.00%    MPKI:0.00
PC:34738     Total:630      MisBP:0   MisRate:0.00%    MPKI:0.00
PC:1097e     Total:1      MisBP:0   MisRate:0.00%    MPKI:0.00
PC:10986     Total:1      MisBP:0   MisRate:0.00%    MPKI:0.00
PC:33b54     Total:5      MisBP:0   MisRate:0.00%    MPKI:0.00
PC:1f2de     Total:7      MisBP:0   MisRate:0.00%    MPKI:0.00
PC:10982     Total:1      MisBP:0   MisRate:0.00%    MPKI:0.00
PC:1f70c     Total:2      MisBP:0   MisRate:0.00%    MPKI:0.00
PC:2eb0e     Total:1      MisBP:0   MisRate:0.00%    MPKI:0.00
PC:43384     Total:52      MisBP:0   MisRate:0.00%    MPKI:0.00
PC:10980     Total:1      MisBP:0   MisRate:0.00%    MPKI:0.00
PC:2eb0c     Total:1      MisBP:0   MisRate:0.00%    MPKI:0.00
PC:2eb14     Total:1      MisBP:0   MisRate:0.00%    MPKI:0.00
PC:1f708     Total:2      MisBP:0   MisRate:0.00%    MPKI:0.00
PC:1097c     Total:1      MisBP:0   MisRate:0.00%    MPKI:0.00
PC:4337e     Total:71      MisBP:0   MisRate:0.00%    MPKI:0.00
PC:1097a     Total:1      MisBP:0   MisRate:0.00%    MPKI:0.00
PC:2eb06     Total:15      MisBP:0   MisRate:0.00%    MPKI:0.00
PC:1f704     Total:2      MisBP:0   MisRate:0.00%    MPKI:0.00
PC:154e2     Total:157      MisBP:0   MisRate:0.00%    MPKI:0.00
PC:33b48     Total:2      MisBP:0   MisRate:0.00%    MPKI:0.00
PC:1f2d2     Total:7      MisBP:0   MisRate:0.00%    MPKI:0.00
PC:1f2fa     Total:7      MisBP:0   MisRate:0.00%    MPKI:0.00
PC:2eb98     Total:3      MisBP:0   MisRate:0.00%    MPKI:0.00
PC:2eb92     Total:3      MisBP:0   MisRate:0.00%    MPKI:0.00
PC:2eb8e     Total:3      MisBP:0   MisRate:0.00%    MPKI:0.00
PC:1eb7e     Total:4      MisBP:0   MisRate:0.00%    MPKI:0.00
PC:28da0     Total:6      MisBP:0   MisRate:0.00%    MPKI:0.00
PC:109a2     Total:1      MisBP:0   MisRate:0.00%    MPKI:0.00
PC:1f72c     Total:3      MisBP:0   MisRate:0.00%    MPKI:0.00
PC:1550a     Total:615      MisBP:0   MisRate:0.00%    MPKI:0.00
PC:33b70     Total:5      MisBP:0   MisRate:0.00%    MPKI:0.00
PC:10978     Total:1      MisBP:0   MisRate:0.00%    MPKI:0.00
PC:1099e     Total:1      MisBP:0   MisRate:0.00%    MPKI:0.00
PC:1f728     Total:3      MisBP:0   MisRate:0.00%    MPKI:0.00
PC:15506     Total:615      MisBP:0   MisRate:0.00%    MPKI:0.00
PC:33b6c     Total:5      MisBP:0   MisRate:0.00%    MPKI:0.00
PC:1098a     Total:1      MisBP:0   MisRate:0.00%    MPKI:0.00
PC:1f714     Total:6      MisBP:0   MisRate:0.00%    MPKI:0.00
PC:33b58     Total:5      MisBP:0   MisRate:0.00%    MPKI:0.00
PC:1f2e2     Total:7      MisBP:0   MisRate:0.00%    MPKI:0.00
PC:10988     Total:1      MisBP:0   MisRate:0.00%    MPKI:0.00
PC:159a0     Total:986      MisBP:0   MisRate:0.00%    MPKI:0.00
PC:10964     Total:1      MisBP:0   MisRate:0.00%    MPKI:0.00
PC:10960     Total:1      MisBP:0   MisRate:0.00%    MPKI:0.00
PC:1fbc4     Total:1      MisBP:0   MisRate:0.00%    MPKI:0.00
PC:159a2     Total:986      MisBP:0   MisRate:0.00%    MPKI:0.00
PC:1095e     Total:1      MisBP:0   MisRate:0.00%    MPKI:0.00
PC:2eaea     Total:1      MisBP:0   MisRate:0.00%    MPKI:0.00
PC:154c6     Total:187      MisBP:0   MisRate:0.00%    MPKI:0.00
PC:1f6e8     Total:7      MisBP:0   MisRate:0.00%    MPKI:0.00
PC:33b2c     Total:2      MisBP:0   MisRate:0.00%    MPKI:0.00
PC:33b34     Total:4      MisBP:0   MisRate:0.00%    MPKI:0.00
PC:1095a     Total:1      MisBP:0   MisRate:0.00%    MPKI:0.00
PC:154c2     Total:187      MisBP:0   MisRate:0.00%    MPKI:0.00
PC:1f6e4     Total:7      MisBP:0   MisRate:0.00%    MPKI:0.00
PC:33b28     Total:2      MisBP:0   MisRate:0.00%    MPKI:0.00
PC:10958     Total:1      MisBP:0   MisRate:0.00%    MPKI:0.00
PC:2eae4     Total:1      MisBP:0   MisRate:0.00%    MPKI:0.00
PC:1fbbc     Total:1      MisBP:0   MisRate:0.00%    MPKI:0.00
PC:1599a     Total:425      MisBP:0   MisRate:0.00%    MPKI:0.00
PC:10956     Total:1      MisBP:0   MisRate:0.00%    MPKI:0.00
PC:1f6f8     Total:11      MisBP:0   MisRate:0.00%    MPKI:0.00
PC:2eb04     Total:15      MisBP:0   MisRate:0.00%    MPKI:0.00
PC:4337a     Total:71      MisBP:0   MisRate:0.00%    MPKI:0.00
PC:10974     Total:1      MisBP:0   MisRate:0.00%    MPKI:0.00
PC:10972     Total:1      MisBP:0   MisRate:0.00%    MPKI:0.00
PC:154da     Total:158      MisBP:0   MisRate:0.00%    MPKI:0.00
PC:33b40     Total:2      MisBP:0   MisRate:0.00%    MPKI:0.00
PC:1f2ca     Total:7      MisBP:0   MisRate:0.00%    MPKI:0.00
PC:10970     Total:1      MisBP:0   MisRate:0.00%    MPKI:0.00
PC:1096e     Total:1      MisBP:0   MisRate:0.00%    MPKI:0.00
PC:2eb9a     Total:1      MisBP:0   MisRate:0.00%    MPKI:0.00
PC:33b3c     Total:4      MisBP:0   MisRate:0.00%    MPKI:0.00
PC:1096c     Total:1      MisBP:0   MisRate:0.00%    MPKI:0.00
PC:1096a     Total:1      MisBP:0   MisRate:0.00%    MPKI:0.00
PC:1f6f4     Total:11      MisBP:0   MisRate:0.00%    MPKI:0.00
PC:33b38     Total:2      MisBP:0   MisRate:0.00%    MPKI:0.00
PC:10966     Total:1      MisBP:0   MisRate:0.00%    MPKI:0.00
PC:154ce     Total:187      MisBP:0   MisRate:0.00%    MPKI:0.00
PC:1f6f0     Total:7      MisBP:0   MisRate:0.00%    MPKI:0.00
PC:2b698     Total:1      MisBP:0   MisRate:0.00%    MPKI:0.00
PC:2b6ac     Total:1      MisBP:0   MisRate:0.00%    MPKI:0.00
PC:16e36     Total:4002      MisBP:0   MisRate:0.00%    MPKI:0.00
PC:212ec     Total:400      MisBP:0   MisRate:0.00%    MPKI:0.00
PC:35730     Total:1      MisBP:0   MisRate:0.00%    MPKI:0.00
PC:212e8     Total:400      MisBP:0   MisRate:0.00%    MPKI:0.00
PC:212e4     Total:400      MisBP:0   MisRate:0.00%    MPKI:0.00
PC:212e0     Total:400      MisBP:0   MisRate:0.00%    MPKI:0.00
PC:212dc     Total:400      MisBP:0   MisRate:0.00%    MPKI:0.00
PC:35720     Total:1      MisBP:0   MisRate:0.00%    MPKI:0.00
PC:16e3a     Total:4002      MisBP:0   MisRate:0.00%    MPKI:0.00
PC:16e22     Total:34329      MisBP:0   MisRate:0.00%    MPKI:0.00
PC:2b694     Total:1      MisBP:0   MisRate:0.00%    MPKI:0.00
PC:16e1e     Total:102984      MisBP:0   MisRate:0.00%    MPKI:0.00
PC:220d8     Total:5      MisBP:0   MisRate:0.00%    MPKI:0.00
PC:3694e     Total:3      MisBP:0   MisRate:0.00%    MPKI:0.00
PC:17eb6     Total:97364      MisBP:0   MisRate:0.00%    MPKI:0.00
PC:17eb2     Total:97364      MisBP:0   MisRate:0.00%    MPKI:0.00
PC:17eae     Total:99077      MisBP:0   MisRate:0.00%    MPKI:0.00
PC:17ea4     Total:99131      MisBP:0   MisRate:0.00%    MPKI:0.00
PC:17ec4     Total:92330      MisBP:0   MisRate:0.00%    MPKI:0.00
PC:17ece     Total:92299      MisBP:0   MisRate:0.00%    MPKI:0.00
PC:220ee     Total:10      MisBP:0   MisRate:0.00%    MPKI:0.00
PC:36964     Total:1      MisBP:0   MisRate:0.00%    MPKI:0.00
PC:17ecc     Total:92299      MisBP:0   MisRate:0.00%    MPKI:0.00
PC:17ec8     Total:92304      MisBP:0   MisRate:0.00%    MPKI:0.00
PC:17b8a     Total:14592      MisBP:0   MisRate:0.00%    MPKI:0.00
PC:40c76     Total:1      MisBP:0   MisRate:0.00%    MPKI:0.00
PC:2bfce     Total:11      MisBP:0   MisRate:0.00%    MPKI:0.00
PC:40844     Total:1089      MisBP:0   MisRate:0.00%    MPKI:0.00
PC:2bfa8     Total:10      MisBP:0   MisRate:0.00%    MPKI:0.00
PC:220e2     Total:6      MisBP:0   MisRate:0.00%    MPKI:0.00
PC:36958     Total:2      MisBP:0   MisRate:0.00%    MPKI:0.00
PC:17ec0     Total:92331      MisBP:0   MisRate:0.00%    MPKI:0.00
PC:17eba     Total:97343      MisBP:0   MisRate:0.00%    MPKI:0.00
PC:220da     Total:5      MisBP:0   MisRate:0.00%    MPKI:0.00
PC:36950     Total:3      MisBP:0   MisRate:0.00%    MPKI:0.00
PC:17eb8     Total:97344      MisBP:0   MisRate:0.00%    MPKI:0.00
PC:2b6b4     Total:6      MisBP:0   MisRate:0.00%    MPKI:0.00
PC:2b6b0     Total:6      MisBP:0   MisRate:0.00%    MPKI:0.00
PC:2a078     Total:5      MisBP:0   MisRate:0.00%    MPKI:0.00
PC:17e98     Total:1011593      MisBP:0   MisRate:0.00%    MPKI:0.00
PC:10a70     Total:1      MisBP:0   MisRate:0.00%    MPKI:0.00
PC:10a6e     Total:1      MisBP:0   MisRate:0.00%    MPKI:0.00
PC:15c3a     Total:1110      MisBP:0   MisRate:0.00%    MPKI:0.00
PC:1fe5c     Total:37371      MisBP:0   MisRate:0.00%    MPKI:0.00
PC:15c38     Total:1128      MisBP:0   MisRate:0.00%    MPKI:0.00
PC:2a07c     Total:9      MisBP:0   MisRate:0.00%    MPKI:0.00
PC:2f0be     Total:2      MisBP:0   MisRate:0.00%    MPKI:0.00
PC:15c34     Total:1128      MisBP:0   MisRate:0.00%    MPKI:0.00
PC:36930     Total:2      MisBP:0   MisRate:0.00%    MPKI:0.00
PC:2f0ba     Total:2      MisBP:0   MisRate:0.00%    MPKI:0.00
PC:15c32     Total:1128      MisBP:0   MisRate:0.00%    MPKI:0.00
PC:1fe54     Total:377059      MisBP:0   MisRate:0.00%    MPKI:0.00
PC:10a52     Total:2      MisBP:0   MisRate:0.00%    MPKI:0.00
PC:2f0b8     Total:2      MisBP:0   MisRate:0.00%    MPKI:0.00
PC:2a074     Total:15      MisBP:0   MisRate:0.00%    MPKI:0.00
PC:10a28     Total:5      MisBP:0   MisRate:0.00%    MPKI:0.00
PC:2eba0     Total:1      MisBP:0   MisRate:0.00%    MPKI:0.00
PC:2eb9e     Total:1      MisBP:0   MisRate:0.00%    MPKI:0.00
PC:4081a     Total:456      MisBP:0   MisRate:0.00%    MPKI:0.00
PC:4081e     Total:456      MisBP:0   MisRate:0.00%    MPKI:0.00
PC:17732     Total:22      MisBP:0   MisRate:0.00%    MPKI:0.00
PC:541b8     Total:10      MisBP:0   MisRate:0.00%    MPKI:0.00
PC:16856     Total:7297      MisBP:0   MisRate:0.00%    MPKI:0.00
PC:220c2     Total:5      MisBP:0   MisRate:0.00%    MPKI:0.00
PC:36938     Total:2      MisBP:0   MisRate:0.00%    MPKI:0.00
PC:17ea0     Total:99133      MisBP:0   MisRate:0.00%    MPKI:0.00
PC:10a7a     Total:1      MisBP:0   MisRate:0.00%    MPKI:0.00
PC:2bfa4     Total:5      MisBP:0   MisRate:0.00%    MPKI:0.00
PC:154be     Total:187      MisBP:0   MisRate:0.00%    MPKI:0.00
PC:1772e     Total:22      MisBP:0   MisRate:0.00%    MPKI:0.00
PC:220be     Total:5      MisBP:0   MisRate:0.00%    MPKI:0.00
PC:36934     Total:2      MisBP:0   MisRate:0.00%    MPKI:0.00
PC:17e9c     Total:99134      MisBP:0   MisRate:0.00%    MPKI:0.00
PC:10a78     Total:1      MisBP:0   MisRate:0.00%    MPKI:0.00
PC:2bfa0     Total:5      MisBP:0   MisRate:0.00%    MPKI:0.00
PC:40816     Total:465      MisBP:0   MisRate:0.00%    MPKI:0.00
PC:220ba     Total:3      MisBP:0   MisRate:0.00%    MPKI:0.00
PC:108e4     Total:1      MisBP:0   MisRate:0.00%    MPKI:0.00
PC:10906     Total:1      MisBP:0   MisRate:0.00%    MPKI:0.00
PC:2ea92     Total:10      MisBP:0   MisRate:0.00%    MPKI:0.00
PC:108e8     Total:1      MisBP:0   MisRate:0.00%    MPKI:0.00
PC:2ea74     Total:6      MisBP:0   MisRate:0.00%    MPKI:0.00
PC:43390     Total:52      MisBP:0   MisRate:0.00%    MPKI:0.00
PC:2eb1a     Total:1      MisBP:0   MisRate:0.00%    MPKI:0.00
PC:108e6     Total:1      MisBP:0   MisRate:0.00%    MPKI:0.00
PC:4338e     Total:52      MisBP:0   MisRate:0.00%    MPKI:0.00
PC:2eb18     Total:1      MisBP:0   MisRate:0.00%    MPKI:0.00
PC:433b0     Total:9      MisBP:0   MisRate:0.00%    MPKI:0.00
PC:2ea70     Total:6      MisBP:0   MisRate:0.00%    MPKI:0.00
PC:108e0     Total:1      MisBP:0   MisRate:0.00%    MPKI:0.00
PC:108dc     Total:1      MisBP:0   MisRate:0.00%    MPKI:0.00
PC:2ea68     Total:6      MisBP:0   MisRate:0.00%    MPKI:0.00
PC:108da     Total:1      MisBP:0   MisRate:0.00%    MPKI:0.00
PC:108d8     Total:1      MisBP:0   MisRate:0.00%    MPKI:0.00
PC:2ea64     Total:6      MisBP:0   MisRate:0.00%    MPKI:0.00
PC:2ea60     Total:7      MisBP:0   MisRate:0.00%    MPKI:0.00
PC:2ea5c     Total:7      MisBP:0   MisRate:0.00%    MPKI:0.00
PC:33ae0     Total:5      MisBP:0   MisRate:0.00%    MPKI:0.00
PC:1f272     Total:1      MisBP:0   MisRate:0.00%    MPKI:0.00
PC:10918     Total:1      MisBP:0   MisRate:0.00%    MPKI:0.00
PC:2eaa4     Total:17      MisBP:0   MisRate:0.00%    MPKI:0.00
PC:1595a     Total:1654      MisBP:0   MisRate:0.00%    MPKI:0.00
PC:10914     Total:1      MisBP:0   MisRate:0.00%    MPKI:0.00
PC:2eaa0     Total:17      MisBP:0   MisRate:0.00%    MPKI:0.00
PC:433bc     Total:9      MisBP:0   MisRate:0.00%    MPKI:0.00
PC:10912     Total:1      MisBP:0   MisRate:0.00%    MPKI:0.00
PC:1547a     Total:160      MisBP:0   MisRate:0.00%    MPKI:0.00
PC:2ea58     Total:7      MisBP:0   MisRate:0.00%    MPKI:0.00
PC:42ba6     Total:114      MisBP:0   MisRate:0.00%    MPKI:0.00
PC:15954     Total:1654      MisBP:0   MisRate:0.00%    MPKI:0.00
PC:433b8     Total:9      MisBP:0   MisRate:0.00%    MPKI:0.00
PC:1090e     Total:1      MisBP:0   MisRate:0.00%    MPKI:0.00
PC:2ea9a     Total:17      MisBP:0   MisRate:0.00%    MPKI:0.00
PC:42ba2     Total:114      MisBP:0   MisRate:0.00%    MPKI:0.00
PC:433b6     Total:9      MisBP:0   MisRate:0.00%    MPKI:0.00
PC:1090c     Total:1      MisBP:0   MisRate:0.00%    MPKI:0.00
PC:1594e     Total:1654      MisBP:0   MisRate:0.00%    MPKI:0.00
PC:2a158     Total:310      MisBP:0   MisRate:0.00%    MPKI:0.00
PC:158ec     Total:999      MisBP:0   MisRate:0.00%    MPKI:0.00
PC:2a162     Total:1      MisBP:0   MisRate:0.00%    MPKI:0.00
PC:2ea34     Total:1      MisBP:0   MisRate:0.00%    MPKI:0.00
PC:432aa     Total:1      MisBP:0   MisRate:0.00%    MPKI:0.00
PC:2ea30     Total:1      MisBP:0   MisRate:0.00%    MPKI:0.00
PC:432a6     Total:1      MisBP:0   MisRate:0.00%    MPKI:0.00
PC:158e6     Total:999      MisBP:0   MisRate:0.00%    MPKI:0.00
PC:2a15c     Total:33      MisBP:0   MisRate:0.00%    MPKI:0.00
PC:158e2     Total:999      MisBP:0   MisRate:0.00%    MPKI:0.00
PC:15412     Total:1929      MisBP:0   MisRate:0.00%    MPKI:0.00
PC:1089e     Total:2      MisBP:0   MisRate:0.00%    MPKI:0.00
PC:2ea2a     Total:1      MisBP:0   MisRate:0.00%    MPKI:0.00
PC:432a0     Total:1      MisBP:0   MisRate:0.00%    MPKI:0.00
PC:2ea28     Total:1      MisBP:0   MisRate:0.00%    MPKI:0.00
PC:4329e     Total:1      MisBP:0   MisRate:0.00%    MPKI:0.00
PC:158de     Total:999      MisBP:0   MisRate:0.00%    MPKI:0.00
PC:103be     Total:1      MisBP:0   MisRate:0.00%    MPKI:0.00
PC:2ea24     Total:1      MisBP:0   MisRate:0.00%    MPKI:0.00
PC:4329a     Total:1      MisBP:0   MisRate:0.00%    MPKI:0.00
PC:158f8     Total:1597      MisBP:0   MisRate:0.00%    MPKI:0.00
PC:2ea50     Total:10      MisBP:0   MisRate:0.00%    MPKI:0.00
PC:2ea4e     Total:9      MisBP:0   MisRate:0.00%    MPKI:0.00
PC:2ea48     Total:1      MisBP:0   MisRate:0.00%    MPKI:0.00
PC:108b8     Total:2      MisBP:0   MisRate:0.00%    MPKI:0.00
PC:2ea44     Total:2      MisBP:0   MisRate:0.00%    MPKI:0.00
PC:158fa     Total:1597      MisBP:0   MisRate:0.00%    MPKI:0.00
PC:2a170     Total:10      MisBP:0   MisRate:0.00%    MPKI:0.00
PC:2ea42     Total:2      MisBP:0   MisRate:0.00%    MPKI:0.00
PC:432b8     Total:1      MisBP:0   MisRate:0.00%    MPKI:0.00
PC:33ae8     Total:5      MisBP:0   MisRate:0.00%    MPKI:0.00
PC:2a16e     Total:1      MisBP:0   MisRate:0.00%    MPKI:0.00
PC:2ea3c     Total:2      MisBP:0   MisRate:0.00%    MPKI:0.00
PC:432b2     Total:1      MisBP:0   MisRate:0.00%    MPKI:0.00
PC:158f2     Total:998      MisBP:0   MisRate:0.00%    MPKI:0.00
PC:2a168     Total:1      MisBP:0   MisRate:0.00%    MPKI:0.00
PC:108ac     Total:2      MisBP:0   MisRate:0.00%    MPKI:0.00
PC:2ea38     Total:1      MisBP:0   MisRate:0.00%    MPKI:0.00
PC:432ae     Total:1      MisBP:0   MisRate:0.00%    MPKI:0.00
PC:33b14     Total:1      MisBP:0   MisRate:0.00%    MPKI:0.00
PC:1598e     Total:475      MisBP:0   MisRate:0.00%    MPKI:0.00
PC:1094a     Total:1      MisBP:0   MisRate:0.00%    MPKI:0.00
PC:2ead6     Total:1      MisBP:0   MisRate:0.00%    MPKI:0.00
PC:33b18     Total:1      MisBP:0   MisRate:0.00%    MPKI:0.00
PC:10948     Total:1      MisBP:0   MisRate:0.00%    MPKI:0.00
PC:1598a     Total:475      MisBP:0   MisRate:0.00%    MPKI:0.00
PC:10946     Total:1      MisBP:0   MisRate:0.00%    MPKI:0.00
PC:2ead2     Total:1      MisBP:0   MisRate:0.00%    MPKI:0.00
PC:1f6d0     Total:7      MisBP:0   MisRate:0.00%    MPKI:0.00
PC:2ead8     Total:1      MisBP:0   MisRate:0.00%    MPKI:0.00
PC:2eace     Total:1      MisBP:0   MisRate:0.00%    MPKI:0.00
PC:1f6cc     Total:7      MisBP:0   MisRate:0.00%    MPKI:0.00
PC:33b10     Total:1      MisBP:0   MisRate:0.00%    MPKI:0.00
PC:2eacc     Total:17      MisBP:0   MisRate:0.00%    MPKI:0.00
PC:15982     Total:475      MisBP:0   MisRate:0.00%    MPKI:0.00
PC:1f6c8     Total:7      MisBP:0   MisRate:0.00%    MPKI:0.00
PC:33b0c     Total:1      MisBP:0   MisRate:0.00%    MPKI:0.00
PC:15980     Total:475      MisBP:0   MisRate:0.00%    MPKI:0.00
PC:2eac8     Total:17      MisBP:0   MisRate:0.00%    MPKI:0.00
PC:33b20     Total:1      MisBP:0   MisRate:0.00%    MPKI:0.00
PC:33b24     Total:2      MisBP:0   MisRate:0.00%    MPKI:0.00
PC:15998     Total:425      MisBP:0   MisRate:0.00%    MPKI:0.00
PC:10954     Total:1      MisBP:0   MisRate:0.00%    MPKI:0.00
PC:2eae0     Total:1      MisBP:0   MisRate:0.00%    MPKI:0.00
PC:15996     Total:475      MisBP:0   MisRate:0.00%    MPKI:0.00
PC:10952     Total:1      MisBP:0   MisRate:0.00%    MPKI:0.00
PC:2eade     Total:1      MisBP:0   MisRate:0.00%    MPKI:0.00
PC:154ba     Total:466      MisBP:0   MisRate:0.00%    MPKI:0.00
PC:1f6dc     Total:9      MisBP:0   MisRate:0.00%    MPKI:0.00
PC:1597e     Total:635      MisBP:0   MisRate:0.00%    MPKI:0.00
PC:15994     Total:475      MisBP:0   MisRate:0.00%    MPKI:0.00
PC:10950     Total:1      MisBP:0   MisRate:0.00%    MPKI:0.00
PC:15992     Total:475      MisBP:0   MisRate:0.00%    MPKI:0.00
PC:1094e     Total:1      MisBP:0   MisRate:0.00%    MPKI:0.00
PC:2eada     Total:1      MisBP:0   MisRate:0.00%    MPKI:0.00
PC:1f6d8     Total:9      MisBP:0   MisRate:0.00%    MPKI:0.00
PC:33b1c     Total:1      MisBP:0   MisRate:0.00%    MPKI:0.00
PC:1094c     Total:1      MisBP:0   MisRate:0.00%    MPKI:0.00
PC:2eaae     Total:17      MisBP:0   MisRate:0.00%    MPKI:0.00
PC:33af8     Total:5      MisBP:0   MisRate:0.00%    MPKI:0.00
PC:2eab6     Total:18      MisBP:0   MisRate:0.00%    MPKI:0.00
PC:42bbe     Total:189      MisBP:0   MisRate:0.00%    MPKI:0.00
PC:10926     Total:1      MisBP:0   MisRate:0.00%    MPKI:0.00
PC:1548e     Total:199      MisBP:0   MisRate:0.00%    MPKI:0.00
PC:33af4     Total:5      MisBP:0   MisRate:0.00%    MPKI:0.00
PC:2eab2     Total:18      MisBP:0   MisRate:0.00%    MPKI:0.00
PC:1548a     Total:342      MisBP:0   MisRate:0.00%    MPKI:0.00
PC:1f27a     Total:1      MisBP:0   MisRate:0.00%    MPKI:0.00
PC:1596e     Total:657      MisBP:0   MisRate:0.00%    MPKI:0.00
PC:15964     Total:1962      MisBP:0   MisRate:0.00%    MPKI:0.00
PC:1091e     Total:1      MisBP:0   MisRate:0.00%    MPKI:0.00
PC:15486     Total:342      MisBP:0   MisRate:0.00%    MPKI:0.00
PC:33aec     Total:5      MisBP:0   MisRate:0.00%    MPKI:0.00
PC:1f276     Total:1      MisBP:0   MisRate:0.00%    MPKI:0.00
PC:2eaaa     Total:17      MisBP:0   MisRate:0.00%    MPKI:0.00
PC:15960     Total:148      MisBP:0   MisRate:0.00%    MPKI:0.00
PC:2eaa8     Total:17      MisBP:0   MisRate:0.00%    MPKI:0.00
PC:42bb0     Total:216      MisBP:0   MisRate:0.00%    MPKI:0.00
PC:2eabc     Total:19      MisBP:0   MisRate:0.00%    MPKI:0.00
PC:154a2     Total:419      MisBP:0   MisRate:0.00%    MPKI:0.00
PC:33b08     Total:1      MisBP:0   MisRate:0.00%    MPKI:0.00
PC:1597c     Total:635      MisBP:0   MisRate:0.00%    MPKI:0.00
PC:2eac2     Total:17      MisBP:0   MisRate:0.00%    MPKI:0.00
PC:1f6c0     Total:7      MisBP:0   MisRate:0.00%    MPKI:0.00
PC:33b04     Total:1      MisBP:0   MisRate:0.00%    MPKI:0.00
PC:15978     Total:635      MisBP:0   MisRate:0.00%    MPKI:0.00
PC:2eac0     Total:17      MisBP:0   MisRate:0.00%    MPKI:0.00
PC:10930     Total:1      MisBP:0   MisRate:0.00%    MPKI:0.00
PC:17760     Total:6      MisBP:0   MisRate:0.00%    MPKI:0.00
PC:15972     Total:657      MisBP:0   MisRate:0.00%    MPKI:0.00
PC:15496     Total:184      MisBP:0   MisRate:0.00%    MPKI:0.00
PC:1f6b8     Total:2      MisBP:0   MisRate:0.00%    MPKI:0.00
PC:33afc     Total:5      MisBP:0   MisRate:0.00%    MPKI:0.00
PC:2eaba     Total:19      MisBP:0   MisRate:0.00%    MPKI:0.00
PC:15970     Total:657      MisBP:0   MisRate:0.00%    MPKI:0.00
PC:1092c     Total:1      MisBP:0   MisRate:0.00%    MPKI:0.00
PC:2eab8     Total:19      MisBP:0   MisRate:0.00%    MPKI:0.00
PC:1f96a     Total:1      MisBP:0   MisRate:0.00%    MPKI:0.00
PC:1f52a     Total:1      MisBP:0   MisRate:0.00%    MPKI:0.00
PC:33da0     Total:2      MisBP:0   MisRate:0.00%    MPKI:0.00
PC:1f97e     Total:1      MisBP:0   MisRate:0.00%    MPKI:0.00
PC:1f97a     Total:1      MisBP:0   MisRate:0.00%    MPKI:0.00
PC:1f976     Total:1      MisBP:0   MisRate:0.00%    MPKI:0.00
PC:1f972     Total:1      MisBP:0   MisRate:0.00%    MPKI:0.00
PC:1574c     Total:3862      MisBP:0   MisRate:0.00%    MPKI:0.00
PC:1f96e     Total:1      MisBP:0   MisRate:0.00%    MPKI:0.00
PC:15748     Total:3862      MisBP:0   MisRate:0.00%    MPKI:0.00
PC:33da4     Total:2      MisBP:0   MisRate:0.00%    MPKI:0.00
PC:15744     Total:3862      MisBP:0   MisRate:0.00%    MPKI:0.00
PC:1f966     Total:1      MisBP:0   MisRate:0.00%    MPKI:0.00
PC:15740     Total:3862      MisBP:0   MisRate:0.00%    MPKI:0.00
PC:1f962     Total:1      MisBP:0   MisRate:0.00%    MPKI:0.00
PC:1573c     Total:4192      MisBP:0   MisRate:0.00%    MPKI:0.00
PC:1f95e     Total:1      MisBP:0   MisRate:0.00%    MPKI:0.00
PC:15730     Total:4459      MisBP:0   MisRate:0.00%    MPKI:0.00
PC:1f952     Total:5      MisBP:0   MisRate:0.00%    MPKI:0.00
PC:1572c     Total:4459      MisBP:0   MisRate:0.00%    MPKI:0.00
PC:33dd4     Total:2      MisBP:0   MisRate:0.00%    MPKI:0.00
PC:33e18     Total:2      MisBP:0   MisRate:0.00%    MPKI:0.00
PC:1f59e     Total:2      MisBP:0   MisRate:0.00%    MPKI:0.00
PC:33e14     Total:2      MisBP:0   MisRate:0.00%    MPKI:0.00
PC:1f586     Total:3      MisBP:0   MisRate:0.00%    MPKI:0.00
PC:33dfc     Total:2      MisBP:0   MisRate:0.00%    MPKI:0.00
PC:1f582     Total:3      MisBP:0   MisRate:0.00%    MPKI:0.00
PC:33df8     Total:2      MisBP:0   MisRate:0.00%    MPKI:0.00
PC:1f578     Total:9      MisBP:0   MisRate:0.00%    MPKI:0.00
PC:1f55e     Total:271663      MisBP:0   MisRate:0.00%    MPKI:0.00
PC:1f94e     Total:1      MisBP:0   MisRate:0.00%    MPKI:0.00
PC:1f556     Total:90674      MisBP:0   MisRate:0.00%    MPKI:0.00
PC:33dcc     Total:2      MisBP:0   MisRate:0.00%    MPKI:0.00
PC:1f552     Total:90674      MisBP:0   MisRate:0.00%    MPKI:0.00
PC:33dc8     Total:2      MisBP:0   MisRate:0.00%    MPKI:0.00
PC:1f54c     Total:2      MisBP:0   MisRate:0.00%    MPKI:0.00
PC:1f548     Total:2      MisBP:0   MisRate:0.00%    MPKI:0.00
PC:1f544     Total:2      MisBP:0   MisRate:0.00%    MPKI:0.00
PC:1f540     Total:1      MisBP:0   MisRate:0.00%    MPKI:0.00
PC:1f53c     Total:2      MisBP:0   MisRate:0.00%    MPKI:0.00
PC:1f21c     Total:2      MisBP:0   MisRate:0.00%    MPKI:0.00
PC:1f9fa     Total:1      MisBP:0   MisRate:0.00%    MPKI:0.00
PC:1f9f6     Total:1      MisBP:0   MisRate:0.00%    MPKI:0.00
PC:1f9f2     Total:1      MisBP:0   MisRate:0.00%    MPKI:0.00
PC:1f9ee     Total:1      MisBP:0   MisRate:0.00%    MPKI:0.00
PC:1f9e6     Total:1      MisBP:0   MisRate:0.00%    MPKI:0.00
PC:1f9e2     Total:1      MisBP:0   MisRate:0.00%    MPKI:0.00
PC:157bc     Total:2055      MisBP:0   MisRate:0.00%    MPKI:0.00
PC:1f9de     Total:1      MisBP:0   MisRate:0.00%    MPKI:0.00
PC:212bc     Total:1404      MisBP:0   MisRate:0.00%    MPKI:0.00
PC:1f92a     Total:4      MisBP:0   MisRate:0.00%    MPKI:0.00
PC:1f214     Total:1      MisBP:0   MisRate:0.00%    MPKI:0.00
PC:1f20e     Total:1      MisBP:0   MisRate:0.00%    MPKI:0.00
PC:1f206     Total:1      MisBP:0   MisRate:0.00%    MPKI:0.00
PC:33a7c     Total:7      MisBP:0   MisRate:0.00%    MPKI:0.00
PC:1f202     Total:2      MisBP:0   MisRate:0.00%    MPKI:0.00
PC:33a78     Total:7      MisBP:0   MisRate:0.00%    MPKI:0.00
PC:1f1fe     Total:2      MisBP:0   MisRate:0.00%    MPKI:0.00
PC:33a74     Total:4      MisBP:0   MisRate:0.00%    MPKI:0.00
PC:1fbfc     Total:1      MisBP:0   MisRate:0.00%    MPKI:0.00
PC:1f93a     Total:4      MisBP:0   MisRate:0.00%    MPKI:0.00
PC:15728     Total:4459      MisBP:0   MisRate:0.00%    MPKI:0.00
PC:1f94a     Total:1      MisBP:0   MisRate:0.00%    MPKI:0.00
PC:15724     Total:4525      MisBP:0   MisRate:0.00%    MPKI:0.00
PC:1f946     Total:1      MisBP:0   MisRate:0.00%    MPKI:0.00
PC:15720     Total:4525      MisBP:0   MisRate:0.00%    MPKI:0.00
PC:1f942     Total:1      MisBP:0   MisRate:0.00%    MPKI:0.00
PC:1571c     Total:4525      MisBP:0   MisRate:0.00%    MPKI:0.00
PC:1f93e     Total:1      MisBP:0   MisRate:0.00%    MPKI:0.00
PC:15718     Total:4525      MisBP:0   MisRate:0.00%    MPKI:0.00
PC:1f5a2     Total:2      MisBP:0   MisRate:0.00%    MPKI:0.00
PC:50fb4     Total:1      MisBP:0   MisRate:0.00%    MPKI:0.00
PC:1e502     Total:7      MisBP:0   MisRate:0.00%    MPKI:0.00
PC:50fac     Total:25      MisBP:0   MisRate:0.00%    MPKI:0.00
PC:50f9e     Total:25      MisBP:0   MisRate:0.00%    MPKI:0.00
PC:1f936     Total:5      MisBP:0   MisRate:0.00%    MPKI:0.00
PC:1f932     Total:5      MisBP:0   MisRate:0.00%    MPKI:0.00
PC:1570c     Total:386      MisBP:0   MisRate:0.00%    MPKI:0.00
PC:1f92e     Total:5      MisBP:0   MisRate:0.00%    MPKI:0.00
PC:2243c     Total:600      MisBP:0   MisRate:0.00%    MPKI:0.00
PC:1f6ca     Total:7      MisBP:0   MisRate:0.00%    MPKI:0.00
PC:154a4     Total:2057      MisBP:0   MisRate:0.00%    MPKI:0.00
PC:1f6c6     Total:7      MisBP:0   MisRate:0.00%    MPKI:0.00
PC:154a0     Total:84      MisBP:0   MisRate:0.00%    MPKI:0.00
PC:1f6c2     Total:7      MisBP:0   MisRate:0.00%    MPKI:0.00
PC:1549c     Total:84      MisBP:0   MisRate:0.00%    MPKI:0.00
PC:1f6be     Total:7      MisBP:0   MisRate:0.00%    MPKI:0.00
PC:15498     Total:184      MisBP:0   MisRate:0.00%    MPKI:0.00
PC:1f6ba     Total:2      MisBP:0   MisRate:0.00%    MPKI:0.00
PC:154a8     Total:2057      MisBP:0   MisRate:0.00%    MPKI:0.00
PC:15494     Total:184      MisBP:0   MisRate:0.00%    MPKI:0.00
PC:1f6b2     Total:7      MisBP:0   MisRate:0.00%    MPKI:0.00
PC:1f6ae     Total:7      MisBP:0   MisRate:0.00%    MPKI:0.00
PC:15488     Total:342      MisBP:0   MisRate:0.00%    MPKI:0.00
PC:1f6aa     Total:7      MisBP:0   MisRate:0.00%    MPKI:0.00
PC:1f6a6     Total:7      MisBP:0   MisRate:0.00%    MPKI:0.00
PC:15480     Total:435      MisBP:0   MisRate:0.00%    MPKI:0.00
PC:1f6a2     Total:7      MisBP:0   MisRate:0.00%    MPKI:0.00
PC:1547c     Total:160      MisBP:0   MisRate:0.00%    MPKI:0.00
PC:1f6ee     Total:7      MisBP:0   MisRate:0.00%    MPKI:0.00
PC:1f8a6     Total:1      MisBP:0   MisRate:0.00%    MPKI:0.00
PC:1f8a2     Total:1      MisBP:0   MisRate:0.00%    MPKI:0.00
PC:1f892     Total:7      MisBP:0   MisRate:0.00%    MPKI:0.00
PC:1f88e     Total:7      MisBP:0   MisRate:0.00%    MPKI:0.00
PC:1e37a     Total:9      MisBP:0   MisRate:0.00%    MPKI:0.00
PC:1e374     Total:9      MisBP:0   MisRate:0.00%    MPKI:0.00
PC:1e370     Total:8      MisBP:0   MisRate:0.00%    MPKI:0.00
PC:154d4     Total:187      MisBP:0   MisRate:0.00%    MPKI:0.00
PC:1f6f6     Total:11      MisBP:0   MisRate:0.00%    MPKI:0.00
PC:1f69e     Total:7      MisBP:0   MisRate:0.00%    MPKI:0.00
PC:1f6ea     Total:7      MisBP:0   MisRate:0.00%    MPKI:0.00
PC:1f6e6     Total:7      MisBP:0   MisRate:0.00%    MPKI:0.00
PC:1f6e2     Total:6      MisBP:0   MisRate:0.00%    MPKI:0.00
PC:1f6de     Total:9      MisBP:0   MisRate:0.00%    MPKI:0.00
PC:1f6da     Total:9      MisBP:0   MisRate:0.00%    MPKI:0.00
PC:154b4     Total:2057      MisBP:0   MisRate:0.00%    MPKI:0.00
PC:1f6d6     Total:9      MisBP:0   MisRate:0.00%    MPKI:0.00
PC:154b0     Total:2057      MisBP:0   MisRate:0.00%    MPKI:0.00
PC:1f5c2     Total:302      MisBP:0   MisRate:0.00%    MPKI:0.00
PC:1f62a     Total:4      MisBP:0   MisRate:0.00%    MPKI:0.00
PC:1f616     Total:606      MisBP:0   MisRate:0.00%    MPKI:0.00
PC:33e8c     Total:3      MisBP:0   MisRate:0.00%    MPKI:0.00
PC:1f5e2     Total:304      MisBP:0   MisRate:0.00%    MPKI:0.00
PC:33e58     Total:1      MisBP:0   MisRate:0.00%    MPKI:0.00
PC:1f5de     Total:302      MisBP:0   MisRate:0.00%    MPKI:0.00
PC:33e54     Total:1      MisBP:0   MisRate:0.00%    MPKI:0.00
PC:1f5c6     Total:302      MisBP:0   MisRate:0.00%    MPKI:0.00
PC:33e3c     Total:2      MisBP:0   MisRate:0.00%    MPKI:0.00
PC:15408     Total:945      MisBP:0   MisRate:0.00%    MPKI:0.00
PC:33e38     Total:2      MisBP:0   MisRate:0.00%    MPKI:0.00
PC:1f5be     Total:302      MisBP:0   MisRate:0.00%    MPKI:0.00
PC:33e34     Total:2      MisBP:0   MisRate:0.00%    MPKI:0.00
PC:1f5b6     Total:2      MisBP:0   MisRate:0.00%    MPKI:0.00
PC:33e2c     Total:4      MisBP:0   MisRate:0.00%    MPKI:0.00
PC:1f5b2     Total:2      MisBP:0   MisRate:0.00%    MPKI:0.00
PC:33e28     Total:2      MisBP:0   MisRate:0.00%    MPKI:0.00
PC:1f5ae     Total:2      MisBP:0   MisRate:0.00%    MPKI:0.00
PC:33e24     Total:2      MisBP:0   MisRate:0.00%    MPKI:0.00
PC:1541c     Total:1610      MisBP:0   MisRate:0.00%    MPKI:0.00
PC:15478     Total:160      MisBP:0   MisRate:0.00%    MPKI:0.00
PC:1f69a     Total:7      MisBP:0   MisRate:0.00%    MPKI:0.00
PC:1f65a     Total:3      MisBP:0   MisRate:0.00%    MPKI:0.00
PC:1f652     Total:3      MisBP:0   MisRate:0.00%    MPKI:0.00
PC:1f64e     Total:3      MisBP:0   MisRate:0.00%    MPKI:0.00
PC:15428     Total:1610      MisBP:0   MisRate:0.00%    MPKI:0.00
PC:1f64a     Total:3      MisBP:0   MisRate:0.00%    MPKI:0.00
PC:15420     Total:1610      MisBP:0   MisRate:0.00%    MPKI:0.00
PC:1f642     Total:2      MisBP:0   MisRate:0.00%    MPKI:0.00
PC:159d8     Total:28900      MisBP:0   MisRate:0.00%    MPKI:0.00
PC:1f63e     Total:2      MisBP:0   MisRate:0.00%    MPKI:0.00
PC:15418     Total:1610      MisBP:0   MisRate:0.00%    MPKI:0.00
PC:1f63a     Total:4      MisBP:0   MisRate:0.00%    MPKI:0.00
PC:1f636     Total:4      MisBP:0   MisRate:0.00%    MPKI:0.00
PC:15410     Total:945      MisBP:0   MisRate:0.00%    MPKI:0.00
PC:1f632     Total:4      MisBP:0   MisRate:0.00%    MPKI:0.00
PC:1540c     Total:945      MisBP:0   MisRate:0.00%    MPKI:0.00
PC:1f62e     Total:4      MisBP:0   MisRate:0.00%    MPKI:0.00
PC:1580e     Total:1480      MisBP:0   MisRate:0.00%    MPKI:0.00
PC:2a08c     Total:8      MisBP:0   MisRate:0.00%    MPKI:0.00
PC:1fe68     Total:37471      MisBP:0   MisRate:0.00%    MPKI:0.00
PC:15c44     Total:2164      MisBP:0   MisRate:0.00%    MPKI:0.00
PC:2a088     Total:8      MisBP:0   MisRate:0.00%    MPKI:0.00
PC:15812     Total:1480      MisBP:0   MisRate:0.00%    MPKI:0.00
PC:1fe64     Total:37370      MisBP:0   MisRate:0.00%    MPKI:0.00
PC:2a086     Total:8      MisBP:0   MisRate:0.00%    MPKI:0.00
PC:15c40     Total:2164      MisBP:0   MisRate:0.00%    MPKI:0.00
PC:2a084     Total:8      MisBP:0   MisRate:0.00%    MPKI:0.00
PC:15c48     Total:2164      MisBP:0   MisRate:0.00%    MPKI:0.00
PC:15c3e     Total:4420      MisBP:0   MisRate:0.00%    MPKI:0.00
PC:1fe60     Total:37370      MisBP:0   MisRate:0.00%    MPKI:0.00
PC:2a082     Total:8      MisBP:0   MisRate:0.00%    MPKI:0.00
PC:15c3c     Total:1108      MisBP:0   MisRate:0.00%    MPKI:0.00
PC:2a080     Total:8      MisBP:0   MisRate:0.00%    MPKI:0.00
PC:1580a     Total:1480      MisBP:0   MisRate:0.00%    MPKI:0.00
PC:21dd8     Total:20      MisBP:0   MisRate:0.00%    MPKI:0.00
PC:17bb6     Total:4160      MisBP:0   MisRate:0.00%    MPKI:0.00
PC:40ca2     Total:123      MisBP:0   MisRate:0.00%    MPKI:0.00
PC:2893c     Total:3      MisBP:0   MisRate:0.00%    MPKI:0.00
PC:28964     Total:7      MisBP:0   MisRate:0.00%    MPKI:0.00
PC:19700     Total:2556      MisBP:0   MisRate:0.00%    MPKI:0.00
PC:23922     Total:1      MisBP:0   MisRate:0.00%    MPKI:0.00
PC:1e73e     Total:59      MisBP:0   MisRate:0.00%    MPKI:0.00
PC:28960     Total:7      MisBP:0   MisRate:0.00%    MPKI:0.00
PC:196fc     Total:2675      MisBP:0   MisRate:0.00%    MPKI:0.00
PC:2391e     Total:1      MisBP:0   MisRate:0.00%    MPKI:0.00
PC:28942     Total:7      MisBP:0   MisRate:0.00%    MPKI:0.00
PC:1e71a     Total:111      MisBP:0   MisRate:0.00%    MPKI:0.00
PC:2bffa     Total:15      MisBP:0   MisRate:0.00%    MPKI:0.00
PC:196d8     Total:2667      MisBP:0   MisRate:0.00%    MPKI:0.00
PC:238fa     Total:3      MisBP:0   MisRate:0.00%    MPKI:0.00
PC:1e714     Total:111      MisBP:0   MisRate:0.00%    MPKI:0.00
PC:28936     Total:3      MisBP:0   MisRate:0.00%    MPKI:0.00
PC:238f4     Total:3      MisBP:0   MisRate:0.00%    MPKI:0.00
PC:185be     Total:3806      MisBP:0   MisRate:0.00%    MPKI:0.00
PC:2ce34     Total:2      MisBP:0   MisRate:0.00%    MPKI:0.00
PC:227e0     Total:1      MisBP:0   MisRate:0.00%    MPKI:0.00
PC:1fe6c     Total:37197      MisBP:0   MisRate:0.00%    MPKI:0.00
PC:17ed8     Total:92276      MisBP:0   MisRate:0.00%    MPKI:0.00
PC:17ee6     Total:89811      MisBP:0   MisRate:0.00%    MPKI:0.00
PC:21dc8     Total:8      MisBP:0   MisRate:0.00%    MPKI:0.00
PC:2bfea     Total:7      MisBP:0   MisRate:0.00%    MPKI:0.00
PC:40860     Total:1079      MisBP:0   MisRate:0.00%    MPKI:0.00
PC:17ee0     Total:89838      MisBP:0   MisRate:0.00%    MPKI:0.00
PC:17edc     Total:89862      MisBP:0   MisRate:0.00%    MPKI:0.00
PC:21dc0     Total:8      MisBP:0   MisRate:0.00%    MPKI:0.00
PC:17b9e     Total:5312      MisBP:0   MisRate:0.00%    MPKI:0.00
PC:2bfe2     Total:7      MisBP:0   MisRate:0.00%    MPKI:0.00
PC:40864     Total:1079      MisBP:0   MisRate:0.00%    MPKI:0.00
PC:17ed6     Total:92278      MisBP:0   MisRate:0.00%    MPKI:0.00
PC:220f4     Total:65      MisBP:0   MisRate:0.00%    MPKI:0.00
PC:3696a     Total:1      MisBP:0   MisRate:0.00%    MPKI:0.00
PC:17ed2     Total:92279      MisBP:0   MisRate:0.00%    MPKI:0.00
PC:21db4     Total:4      MisBP:0   MisRate:0.00%    MPKI:0.00
PC:17b92     Total:6494      MisBP:0   MisRate:0.00%    MPKI:0.00
PC:40c7e     Total:1      MisBP:0   MisRate:0.00%    MPKI:0.00
PC:2bfd6     Total:11      MisBP:0   MisRate:0.00%    MPKI:0.00
PC:4084c     Total:1088      MisBP:0   MisRate:0.00%    MPKI:0.00
PC:2bff6     Total:12      MisBP:0   MisRate:0.00%    MPKI:0.00
PC:40870     Total:991      MisBP:0   MisRate:0.00%    MPKI:0.00
PC:21dd6     Total:8      MisBP:0   MisRate:0.00%    MPKI:0.00
PC:17bb4     Total:4090      MisBP:0   MisRate:0.00%    MPKI:0.00
PC:2bff8     Total:3      MisBP:0   MisRate:0.00%    MPKI:0.00
PC:4086e     Total:991      MisBP:0   MisRate:0.00%    MPKI:0.00
PC:17ef0     Total:88127      MisBP:0   MisRate:0.00%    MPKI:0.00
PC:21dd4     Total:8      MisBP:0   MisRate:0.00%    MPKI:0.00
PC:17bb2     Total:4090      MisBP:0   MisRate:0.00%    MPKI:0.00
PC:40c9e     Total:123      MisBP:0   MisRate:0.00%    MPKI:0.00
PC:1e77c     Total:210      MisBP:0   MisRate:0.00%    MPKI:0.00
PC:21dd0     Total:8      MisBP:0   MisRate:0.00%    MPKI:0.00
PC:17bae     Total:4089      MisBP:0   MisRate:0.00%    MPKI:0.00
PC:40c9a     Total:123      MisBP:0   MisRate:0.00%    MPKI:0.00
PC:2bff2     Total:7      MisBP:0   MisRate:0.00%    MPKI:0.00
PC:40868     Total:1079      MisBP:0   MisRate:0.00%    MPKI:0.00
PC:17eea     Total:89811      MisBP:0   MisRate:0.00%    MPKI:0.00
PC:21dcc     Total:8      MisBP:0   MisRate:0.00%    MPKI:0.00
PC:2bfee     Total:14      MisBP:0   MisRate:0.00%    MPKI:0.00
PC:1fbc8     Total:3      MisBP:0   MisRate:0.00%    MPKI:0.00
PC:1fbde     Total:2      MisBP:0   MisRate:0.00%    MPKI:0.00
PC:1fbda     Total:2      MisBP:0   MisRate:0.00%    MPKI:0.00
PC:1fbd6     Total:2      MisBP:0   MisRate:0.00%    MPKI:0.00
PC:159b2     Total:37964      MisBP:0   MisRate:0.00%    MPKI:0.00
PC:1fbd4     Total:2      MisBP:0   MisRate:0.00%    MPKI:0.00
PC:1fbd2     Total:2      MisBP:0   MisRate:0.00%    MPKI:0.00
PC:159ac     Total:37964      MisBP:0   MisRate:0.00%    MPKI:0.00
PC:1fbce     Total:2      MisBP:0   MisRate:0.00%    MPKI:0.00
PC:1fbcc     Total:2      MisBP:0   MisRate:0.00%    MPKI:0.00
PC:159bc     Total:185146      MisBP:0   MisRate:0.00%    MPKI:0.00
PC:18b8c     Total:1      MisBP:0   MisRate:0.00%    MPKI:0.00
PC:18b84     Total:1      MisBP:0   MisRate:0.00%    MPKI:0.00
[...]
PC:1ff06     Total:165705      MisBP:943   MisRate:0.57%    MPKI:0.00
PC:1d76c     Total:5396      MisBP:953   MisRate:17.66%    MPKI:0.00
PC:1234c     Total:112336      MisBP:961   MisRate:0.86%    MPKI:0.00
PC:12dba     Total:10044      MisBP:966   MisRate:9.62%    MPKI:0.00
PC:17522     Total:48644      MisBP:981   MisRate:2.02%    MPKI:0.00
PC:17382     Total:13563      MisBP:981   MisRate:7.23%    MPKI:0.00
PC:19270     Total:17490      MisBP:987   MisRate:5.64%    MPKI:0.00
PC:15318     Total:3129      MisBP:1009   MisRate:32.25%    MPKI:0.00
PC:15192     Total:2738      MisBP:1021   MisRate:37.29%    MPKI:0.00
PC:19a00     Total:4565      MisBP:1035   MisRate:22.67%    MPKI:0.00
PC:1739a     Total:13417      MisBP:1044   MisRate:7.78%    MPKI:0.00
PC:18f22     Total:14385      MisBP:1046   MisRate:7.27%    MPKI:0.00
PC:1517c     Total:3084      MisBP:1062   MisRate:34.44%    MPKI:0.00
PC:13a22     Total:20898      MisBP:1069   MisRate:5.12%    MPKI:0.00
PC:1ccb6     Total:10910      MisBP:1083   MisRate:9.93%    MPKI:0.00
PC:196b0     Total:18138      MisBP:1091   MisRate:6.01%    MPKI:0.00
PC:1763c     Total:13526      MisBP:1093   MisRate:8.08%    MPKI:0.00
PC:1fe94     Total:169748      MisBP:1101   MisRate:0.65%    MPKI:0.00
PC:18c1a     Total:12097      MisBP:1110   MisRate:9.18%    MPKI:0.00
PC:14d7e     Total:3348      MisBP:1112   MisRate:33.21%    MPKI:0.00
PC:1c9e8     Total:14241      MisBP:1114   MisRate:7.82%    MPKI:0.00
PC:22f44     Total:73278      MisBP:1123   MisRate:1.53%    MPKI:0.00
PC:19506     Total:31121      MisBP:1132   MisRate:3.64%    MPKI:0.00
PC:18eee     Total:6112      MisBP:1139   MisRate:18.64%    MPKI:0.00
PC:173a6     Total:17484      MisBP:1146   MisRate:6.55%    MPKI:0.00
PC:1742c     Total:6862      MisBP:1176   MisRate:17.14%    MPKI:0.00
PC:175f6     Total:218223      MisBP:1178   MisRate:0.54%    MPKI:0.00
PC:152b8     Total:4979      MisBP:1195   MisRate:24.00%    MPKI:0.00
PC:122ce     Total:216798      MisBP:1197   MisRate:0.55%    MPKI:0.00
PC:12382     Total:71835      MisBP:1208   MisRate:1.68%    MPKI:0.00
PC:1946c     Total:7612      MisBP:1222   MisRate:16.05%    MPKI:0.00
PC:172d6     Total:211753      MisBP:1235   MisRate:0.58%    MPKI:0.00
PC:1728c     Total:19146      MisBP:1236   MisRate:6.46%    MPKI:0.00
PC:1d6b8     Total:5449      MisBP:1245   MisRate:22.85%    MPKI:0.00
PC:197c8     Total:17692      MisBP:1254   MisRate:7.09%    MPKI:0.00
PC:17266     Total:12919      MisBP:1284   MisRate:9.94%    MPKI:0.00
PC:1522a     Total:4048      MisBP:1363   MisRate:33.67%    MPKI:0.00
PC:16e00     Total:36343      MisBP:1378   MisRate:3.79%    MPKI:0.00
PC:1d908     Total:3658      MisBP:1384   MisRate:37.83%    MPKI:0.00
PC:177c8     Total:10736      MisBP:1398   MisRate:13.02%    MPKI:0.00
PC:167fe     Total:10366      MisBP:1416   MisRate:13.66%    MPKI:0.00
PC:1d9d0     Total:50326      MisBP:1421   MisRate:2.82%    MPKI:0.00
PC:1d228     Total:12673      MisBP:1426   MisRate:11.25%    MPKI:0.00
PC:17856     Total:54151      MisBP:1443   MisRate:2.66%    MPKI:0.00
PC:1d802     Total:5928      MisBP:1444   MisRate:24.36%    MPKI:0.00
PC:18116     Total:64735      MisBP:1452   MisRate:2.24%    MPKI:0.00
PC:192bc     Total:15572      MisBP:1468   MisRate:9.43%    MPKI:0.00
PC:17f7c     Total:75461      MisBP:1474   MisRate:1.95%    MPKI:0.00
PC:19800     Total:17713      MisBP:1474   MisRate:8.32%    MPKI:0.00
PC:18714     Total:28509      MisBP:1475   MisRate:5.17%    MPKI:0.00
PC:1904a     Total:13784      MisBP:1480   MisRate:10.74%    MPKI:0.00
PC:1952e     Total:23932      MisBP:1502   MisRate:6.28%    MPKI:0.01
PC:179f0     Total:13579      MisBP:1509   MisRate:11.11%    MPKI:0.01
PC:1d71c     Total:5983      MisBP:1522   MisRate:25.44%    MPKI:0.01
PC:15302     Total:3629      MisBP:1535   MisRate:42.30%    MPKI:0.01
PC:1d7b8     Total:5017      MisBP:1541   MisRate:30.72%    MPKI:0.01
PC:173c0     Total:14067      MisBP:1545   MisRate:10.98%    MPKI:0.01
PC:1d6fe     Total:28399      MisBP:1563   MisRate:5.50%    MPKI:0.01
PC:16e34     Total:20964      MisBP:1585   MisRate:7.56%    MPKI:0.01
PC:190f4     Total:9903      MisBP:1594   MisRate:16.10%    MPKI:0.01
PC:18f72     Total:11822      MisBP:1596   MisRate:13.50%    MPKI:0.01
PC:1ffb4     Total:8307      MisBP:1597   MisRate:19.22%    MPKI:0.01
PC:123a0     Total:27284      MisBP:1621   MisRate:5.94%    MPKI:0.01
PC:122ec     Total:66153      MisBP:1630   MisRate:2.46%    MPKI:0.01
PC:1cfbe     Total:18946      MisBP:1633   MisRate:8.62%    MPKI:0.01
PC:18efe     Total:18927      MisBP:1662   MisRate:8.78%    MPKI:0.01
PC:1994e     Total:14034      MisBP:1667   MisRate:11.88%    MPKI:0.01
PC:1d6e0     Total:36342      MisBP:1730   MisRate:4.76%    MPKI:0.01
PC:1db52     Total:32178      MisBP:1734   MisRate:5.39%    MPKI:0.01
PC:1d36e     Total:3891      MisBP:1740   MisRate:44.72%    MPKI:0.01
PC:197e0     Total:18208      MisBP:1744   MisRate:9.58%    MPKI:0.01
PC:174ee     Total:51784      MisBP:1746   MisRate:3.37%    MPKI:0.01
PC:1d368     Total:18552      MisBP:1749   MisRate:9.43%    MPKI:0.01
PC:18c4a     Total:10849      MisBP:1771   MisRate:16.32%    MPKI:0.01
PC:14d34     Total:68924      MisBP:1799   MisRate:2.61%    MPKI:0.01
PC:1cd2a     Total:15732      MisBP:1800   MisRate:11.44%    MPKI:0.01
PC:16768     Total:23338      MisBP:1801   MisRate:7.72%    MPKI:0.01
PC:1750a     Total:50802      MisBP:1804   MisRate:3.55%    MPKI:0.01
PC:1da8e     Total:4472      MisBP:1805   MisRate:40.36%    MPKI:0.01
PC:1cfb4     Total:18938      MisBP:1819   MisRate:9.61%    MPKI:0.01
PC:175e6     Total:16051      MisBP:1827   MisRate:11.38%    MPKI:0.01
PC:1732e     Total:11317      MisBP:1839   MisRate:16.25%    MPKI:0.01
PC:18ed6     Total:8420      MisBP:1845   MisRate:21.91%    MPKI:0.01
PC:18c20     Total:11323      MisBP:1866   MisRate:16.48%    MPKI:0.01
PC:20054     Total:13806      MisBP:1887   MisRate:13.67%    MPKI:0.01
PC:1ff20     Total:154220      MisBP:1891   MisRate:1.23%    MPKI:0.01
PC:1937e     Total:28645      MisBP:1894   MisRate:6.61%    MPKI:0.01
PC:14eae     Total:20035      MisBP:1943   MisRate:9.70%    MPKI:0.01
PC:211be     Total:19231      MisBP:1993   MisRate:10.36%    MPKI:0.01
PC:19460     Total:15634      MisBP:2035   MisRate:13.02%    MPKI:0.01
PC:12398     Total:32506      MisBP:2037   MisRate:6.27%    MPKI:0.01
PC:1ff02     Total:166739      MisBP:2045   MisRate:1.23%    MPKI:0.01
PC:12274     Total:53291      MisBP:2047   MisRate:3.84%    MPKI:0.01
PC:153ac     Total:5012      MisBP:2066   MisRate:41.22%    MPKI:0.01
PC:159e0     Total:28900      MisBP:2137   MisRate:7.39%    MPKI:0.01
PC:17630     Total:12656      MisBP:2146   MisRate:16.96%    MPKI:0.01
PC:1fea0     Total:160345      MisBP:2152   MisRate:1.34%    MPKI:0.01
PC:1ff16     Total:155928      MisBP:2155   MisRate:1.38%    MPKI:0.01
PC:2026c     Total:34595      MisBP:2191   MisRate:6.33%    MPKI:0.01
PC:199a6     Total:23477      MisBP:2197   MisRate:9.36%    MPKI:0.01
PC:195f0     Total:13068      MisBP:2205   MisRate:16.87%    MPKI:0.01
PC:19490     Total:16170      MisBP:2218   MisRate:13.72%    MPKI:0.01
PC:15ac0     Total:11313      MisBP:2219   MisRate:19.61%    MPKI:0.01
PC:1827a     Total:11858      MisBP:2220   MisRate:18.72%    MPKI:0.01
PC:155ea     Total:17717      MisBP:2258   MisRate:12.74%    MPKI:0.01
PC:15c9a     Total:16214      MisBP:2279   MisRate:14.06%    MPKI:0.01
PC:1cd4a     Total:16673      MisBP:2316   MisRate:13.89%    MPKI:0.01
PC:1915c     Total:69434      MisBP:2328   MisRate:3.35%    MPKI:0.01
PC:20004     Total:8670      MisBP:2341   MisRate:27.00%    MPKI:0.01
PC:16658     Total:66937      MisBP:2357   MisRate:3.52%    MPKI:0.01
PC:188f0     Total:62765      MisBP:2393   MisRate:3.81%    MPKI:0.01
PC:1919c     Total:36067      MisBP:2451   MisRate:6.80%    MPKI:0.01
PC:198d0     Total:14159      MisBP:2465   MisRate:17.41%    MPKI:0.01
PC:18eb4     Total:25722      MisBP:2555   MisRate:9.93%    MPKI:0.01
PC:19914     Total:9927      MisBP:2567   MisRate:25.86%    MPKI:0.01
PC:19358     Total:32567      MisBP:2573   MisRate:7.90%    MPKI:0.01
PC:19186     Total:44081      MisBP:2583   MisRate:5.86%    MPKI:0.01
PC:1feaa     Total:158906      MisBP:2597   MisRate:1.63%    MPKI:0.01
PC:189da     Total:53422      MisBP:2623   MisRate:4.91%    MPKI:0.01
PC:14eb8     Total:11595      MisBP:2637   MisRate:22.74%    MPKI:0.01
PC:19180     Total:55886      MisBP:2643   MisRate:4.73%    MPKI:0.01
PC:189ee     Total:37343      MisBP:2646   MisRate:7.09%    MPKI:0.01
PC:1dbae     Total:27172      MisBP:2675   MisRate:9.84%    MPKI:0.01
PC:17624     Total:12294      MisBP:2680   MisRate:21.80%    MPKI:0.01
PC:198dc     Total:11520      MisBP:2683   MisRate:23.29%    MPKI:0.01
PC:18abe     Total:122480      MisBP:2690   MisRate:2.20%    MPKI:0.01
PC:18098     Total:22638      MisBP:2714   MisRate:11.99%    MPKI:0.01
PC:1d570     Total:6204      MisBP:2786   MisRate:44.91%    MPKI:0.01
PC:191f8     Total:18729      MisBP:2802   MisRate:14.96%    MPKI:0.01
PC:1d4a0     Total:13376      MisBP:2806   MisRate:20.98%    MPKI:0.01
PC:16f7e     Total:52779      MisBP:2824   MisRate:5.35%    MPKI:0.01
PC:1d58a     Total:14999      MisBP:2850   MisRate:19.00%    MPKI:0.01
PC:193b0     Total:30903      MisBP:2881   MisRate:9.32%    MPKI:0.01
PC:19678     Total:16382      MisBP:2886   MisRate:17.62%    MPKI:0.01
PC:17842     Total:52841      MisBP:2894   MisRate:5.48%    MPKI:0.01
PC:159e8     Total:12537      MisBP:2992   MisRate:23.87%    MPKI:0.01
PC:1fe8e     Total:172515      MisBP:2995   MisRate:1.74%    MPKI:0.01
PC:153f8     Total:24497      MisBP:3001   MisRate:12.25%    MPKI:0.01
PC:18ee8     Total:19056      MisBP:3014   MisRate:15.82%    MPKI:0.01
PC:19342     Total:57703      MisBP:3075   MisRate:5.33%    MPKI:0.01
PC:1da88     Total:43871      MisBP:3118   MisRate:7.11%    MPKI:0.01
PC:1958e     Total:25921      MisBP:3124   MisRate:12.05%    MPKI:0.01
PC:12284     Total:219665      MisBP:3182   MisRate:1.45%    MPKI:0.01
PC:1d50a     Total:20047      MisBP:3284   MisRate:16.38%    MPKI:0.01
PC:16660     Total:82103      MisBP:3379   MisRate:4.12%    MPKI:0.01
PC:1d5ac     Total:14677      MisBP:3393   MisRate:23.12%    MPKI:0.01
PC:1ff0c     Total:164787      MisBP:3428   MisRate:2.08%    MPKI:0.01
PC:123c2     Total:27201      MisBP:3465   MisRate:12.74%    MPKI:0.01
PC:1dbfa     Total:11874      MisBP:3513   MisRate:29.59%    MPKI:0.01
PC:122e4     Total:91424      MisBP:3516   MisRate:3.85%    MPKI:0.01
PC:193dc     Total:20234      MisBP:3539   MisRate:17.49%    MPKI:0.01
PC:1da5a     Total:72736      MisBP:3665   MisRate:5.04%    MPKI:0.01
PC:18b00     Total:7186      MisBP:3665   MisRate:51.00%    MPKI:0.01
PC:16d72     Total:90585      MisBP:3679   MisRate:4.06%    MPKI:0.01
PC:194ee     Total:51741      MisBP:3710   MisRate:7.17%    MPKI:0.01
PC:19368     Total:32346      MisBP:3731   MisRate:11.53%    MPKI:0.01
PC:153d2     Total:7979      MisBP:3756   MisRate:47.07%    MPKI:0.01
PC:1d0f8     Total:19189      MisBP:3895   MisRate:20.30%    MPKI:0.01
PC:1cb22     Total:229560      MisBP:3902   MisRate:1.70%    MPKI:0.01
PC:19554     Total:37280      MisBP:3970   MisRate:10.65%    MPKI:0.01
PC:14d5e     Total:68163      MisBP:4017   MisRate:5.89%    MPKI:0.01
PC:19330     Total:81037      MisBP:4076   MisRate:5.03%    MPKI:0.01
PC:1fefe     Total:183171      MisBP:4128   MisRate:2.25%    MPKI:0.01
PC:1ff2e     Total:214080      MisBP:4154   MisRate:1.94%    MPKI:0.01
PC:1560c     Total:24886      MisBP:4173   MisRate:16.77%    MPKI:0.01
PC:18acc     Total:120966      MisBP:4328   MisRate:3.58%    MPKI:0.01
PC:123a4     Total:21720      MisBP:4423   MisRate:20.36%    MPKI:0.01
PC:1ff84     Total:244331      MisBP:4426   MisRate:1.81%    MPKI:0.01
PC:14d64     Total:52030      MisBP:4446   MisRate:8.55%    MPKI:0.01
PC:1229e     Total:258333      MisBP:4635   MisRate:1.79%    MPKI:0.02
PC:12342     Total:40834      MisBP:4738   MisRate:11.60%    MPKI:0.02
PC:18e00     Total:346371      MisBP:4771   MisRate:1.38%    MPKI:0.02
PC:1febc     Total:280941      MisBP:4842   MisRate:1.72%    MPKI:0.02
PC:1d51a     Total:12567      MisBP:4881   MisRate:38.84%    MPKI:0.02
PC:175f0     Total:224407      MisBP:5009   MisRate:2.23%    MPKI:0.02
PC:1cac0     Total:220657      MisBP:5017   MisRate:2.27%    MPKI:0.02
PC:2010e     Total:40378      MisBP:5063   MisRate:12.54%    MPKI:0.02
PC:12292     Total:142047      MisBP:5064   MisRate:3.57%    MPKI:0.02
PC:17280     Total:204538      MisBP:5147   MisRate:2.52%    MPKI:0.02
PC:20258     Total:33135      MisBP:5163   MisRate:15.58%    MPKI:0.02
PC:1fe98     Total:164169      MisBP:5290   MisRate:3.22%    MPKI:0.02
PC:171d0     Total:16624      MisBP:5312   MisRate:31.95%    MPKI:0.02
PC:122fa     Total:109197      MisBP:5354   MisRate:4.90%    MPKI:0.02
PC:17afa     Total:42214      MisBP:5363   MisRate:12.70%    MPKI:0.02
PC:17b82     Total:39158      MisBP:5367   MisRate:13.71%    MPKI:0.02
PC:18bdc     Total:18422      MisBP:5407   MisRate:29.35%    MPKI:0.02
PC:1506e     Total:14603      MisBP:5413   MisRate:37.07%    MPKI:0.02
PC:12350     Total:111319      MisBP:5449   MisRate:4.89%    MPKI:0.02
PC:188c2     Total:71364      MisBP:5449   MisRate:7.64%    MPKI:0.02
PC:3334c     Total:16886556      MisBP:5468   MisRate:0.03%    MPKI:0.02
PC:1d1ae     Total:44182      MisBP:5486   MisRate:12.42%    MPKI:0.02
PC:123b0     Total:62827      MisBP:5639   MisRate:8.98%    MPKI:0.02
PC:15a8a     Total:16747      MisBP:5736   MisRate:34.25%    MPKI:0.02
PC:1230a     Total:118563      MisBP:5741   MisRate:4.84%    MPKI:0.02
PC:1811c     Total:84300      MisBP:5910   MisRate:7.01%    MPKI:0.02
PC:1d004     Total:7797      MisBP:6200   MisRate:79.52%    MPKI:0.02
PC:17320     Total:25133      MisBP:6203   MisRate:24.68%    MPKI:0.02
PC:201ca     Total:30948      MisBP:6274   MisRate:20.27%    MPKI:0.02
PC:1ff34     Total:211354      MisBP:6290   MisRate:2.98%    MPKI:0.02
PC:1230e     Total:71060      MisBP:6437   MisRate:9.06%    MPKI:0.02
PC:166e0     Total:94532      MisBP:6575   MisRate:6.96%    MPKI:0.02
PC:16f8e     Total:72288      MisBP:6579   MisRate:9.10%    MPKI:0.02
PC:1cad8     Total:223348      MisBP:6770   MisRate:3.03%    MPKI:0.02
PC:1d1ec     Total:34682      MisBP:7043   MisRate:20.31%    MPKI:0.02
PC:1caee     Total:221381      MisBP:7097   MisRate:3.21%    MPKI:0.02
PC:17f76     Total:81248      MisBP:7162   MisRate:8.81%    MPKI:0.02
PC:1cff8     Total:19912      MisBP:7358   MisRate:36.95%    MPKI:0.02
PC:17f34     Total:85022      MisBP:7365   MisRate:8.66%    MPKI:0.02
PC:1916c     Total:62332      MisBP:7382   MisRate:11.84%    MPKI:0.02
PC:19518     Total:45645      MisBP:7576   MisRate:16.60%    MPKI:0.03
PC:1fec2     Total:262101      MisBP:7793   MisRate:2.97%    MPKI:0.03
PC:1724a     Total:34968      MisBP:7841   MisRate:22.42%    MPKI:0.03
PC:1666a     Total:72500      MisBP:8007   MisRate:11.04%    MPKI:0.03
PC:123be     Total:72839      MisBP:8098   MisRate:11.12%    MPKI:0.03
PC:1ff0e     Total:161702      MisBP:8260   MisRate:5.11%    MPKI:0.03
PC:172f8     Total:193890      MisBP:8499   MisRate:4.38%    MPKI:0.03
PC:12334     Total:84507      MisBP:8747   MisRate:10.35%    MPKI:0.03
PC:122f0     Total:63932      MisBP:9059   MisRate:14.17%    MPKI:0.03
PC:15028     Total:15836      MisBP:9091   MisRate:57.41%    MPKI:0.03
PC:1231e     Total:84274      MisBP:9804   MisRate:11.63%    MPKI:0.03
PC:16f66     Total:150932      MisBP:10171   MisRate:6.74%    MPKI:0.03
PC:18aae     Total:114060      MisBP:10376   MisRate:9.10%    MPKI:0.03
PC:18006     Total:82416      MisBP:10441   MisRate:12.67%    MPKI:0.03
PC:174d8     Total:48554      MisBP:10571   MisRate:21.77%    MPKI:0.04
PC:1782c     Total:56637      MisBP:10991   MisRate:19.41%    MPKI:0.04
PC:17224     Total:179640      MisBP:11076   MisRate:6.17%    MPKI:0.04
PC:16510     Total:77079      MisBP:12183   MisRate:15.81%    MPKI:0.04
PC:18c72     Total:213525      MisBP:12493   MisRate:5.85%    MPKI:0.04
PC:16508     Total:83146      MisBP:12643   MisRate:15.21%    MPKI:0.04
PC:122a2     Total:254375      MisBP:12695   MisRate:4.99%    MPKI:0.04
PC:122fe     Total:89135      MisBP:12727   MisRate:14.28%    MPKI:0.04
PC:18d0c     Total:226582      MisBP:13605   MisRate:6.00%    MPKI:0.05
PC:1ca7e     Total:65765      MisBP:13639   MisRate:20.74%    MPKI:0.05
PC:1ff24     Total:153391      MisBP:14067   MisRate:9.17%    MPKI:0.05
PC:17110     Total:781741      MisBP:15333   MisRate:1.96%    MPKI:0.05
PC:1720c     Total:188833      MisBP:15339   MisRate:8.12%    MPKI:0.05
PC:1ff56     Total:155978      MisBP:15936   MisRate:10.22%    MPKI:0.05
PC:1235e     Total:128677      MisBP:16778   MisRate:13.04%    MPKI:0.06
PC:1cb02     Total:224130      MisBP:16968   MisRate:7.57%    MPKI:0.06
PC:187c6     Total:131158      MisBP:17352   MisRate:13.23%    MPKI:0.06
PC:12296     Total:132771      MisBP:17560   MisRate:13.23%    MPKI:0.06
PC:172de     Total:211011      MisBP:18638   MisRate:8.83%    MPKI:0.06
PC:18d4e     Total:221917      MisBP:18789   MisRate:8.47%    MPKI:0.06
PC:1fede     Total:147113      MisBP:20584   MisRate:13.99%    MPKI:0.07
PC:18d18     Total:594525      MisBP:20859   MisRate:3.51%    MPKI:0.07
PC:187f2     Total:207406      MisBP:22223   MisRate:10.71%    MPKI:0.07
PC:18e26     Total:311908      MisBP:22364   MisRate:7.17%    MPKI:0.07
PC:1feb0     Total:153885      MisBP:22566   MisRate:14.66%    MPKI:0.08
PC:16f6a     Total:111638      MisBP:22647   MisRate:20.29%    MPKI:0.08
PC:1d9c4     Total:1390741      MisBP:23435   MisRate:1.69%    MPKI:0.08
PC:18804     Total:196695      MisBP:25098   MisRate:12.76%    MPKI:0.08
PC:18d3e     Total:310346      MisBP:26441   MisRate:8.52%    MPKI:0.09
PC:1ca5a     Total:223107      MisBP:26443   MisRate:11.85%    MPKI:0.09
PC:187d8     Total:163307      MisBP:26915   MisRate:16.48%    MPKI:0.09
PC:122b6     Total:246184      MisBP:27541   MisRate:11.19%    MPKI:0.09
PC:18e0a     Total:347411      MisBP:29661   MisRate:8.54%    MPKI:0.10
PC:1fec8     Total:259266      MisBP:31255   MisRate:12.06%    MPKI:0.10
PC:17146     Total:154876      MisBP:31583   MisRate:20.39%    MPKI:0.11
PC:1d1a8     Total:197224      MisBP:32457   MisRate:16.46%    MPKI:0.11
PC:18800     Total:195255      MisBP:33223   MisRate:17.02%    MPKI:0.11
PC:1feda     Total:353870      MisBP:34332   MisRate:9.70%    MPKI:0.11
PC:1ff4c     Total:287908      MisBP:37090   MisRate:12.88%    MPKI:0.12
PC:1ff38     Total:209533      MisBP:38665   MisRate:18.45%    MPKI:0.13
PC:1228a     Total:217611      MisBP:38797   MisRate:17.83%    MPKI:0.13
PC:17226     Total:135359      MisBP:39225   MisRate:28.98%    MPKI:0.13
PC:189a6     Total:413425      MisBP:39577   MisRate:9.57%    MPKI:0.13
PC:172fc     Total:176528      MisBP:40563   MisRate:22.98%    MPKI:0.14
PC:122b0     Total:306359      MisBP:40690   MisRate:13.28%    MPKI:0.14
PC:22f70     Total:70689      MisBP:43322   MisRate:61.29%    MPKI:0.14
PC:18d38     Total:504905      MisBP:47421   MisRate:9.39%    MPKI:0.16
PC:18d20     Total:595816      MisBP:47718   MisRate:8.01%    MPKI:0.16
PC:18894     Total:486409      MisBP:51920   MisRate:10.67%    MPKI:0.17
PC:18e4e     Total:310525      MisBP:56247   MisRate:18.11%    MPKI:0.19
PC:189b8     Total:433078      MisBP:60268   MisRate:13.92%    MPKI:0.20
PC:188a6     Total:515616      MisBP:66920   MisRate:12.98%    MPKI:0.22
PC:189b4     Total:599412      MisBP:72787   MisRate:12.14%    MPKI:0.24
PC:1712c     Total:739572      MisBP:80050   MisRate:10.82%    MPKI:0.27
PC:187d4     Total:690805      MisBP:111144   MisRate:16.09%    MPKI:0.37
PC:17136     Total:897281      MisBP:140844   MisRate:15.70%    MPKI:0.47
PC:188a2     Total:1248121      MisBP:141531   MisRate:11.34%    MPKI:0.47
Totfetch:554454313  TotInsts:300000006  TotMis : inf%   MPKI : 9.35
=============finish sim!!!!!!=============
Done running SimPoint!
