Global frequency set at 1000000000000 ticks per second
 Register [printBranch()] ExitCallback !!!!!!! 
gem5 Simulator System.  https://www.gem5.org
gem5 is copyrighted software; use the --copyright option for details.

gem5 version 22.0.0.2
gem5 compiled Sep  7 2022 00:42:18
gem5 started Sep  7 2022 02:00:46
gem5 executing on a100, pid 2728325
command line: /data/zxf/gem5/gem5-prof/build/ARM/gem5.fast --outdir=/data/zxf/checkpoint/spec2006/473.astar/prof/astar_ckp_2 /data/zxf/gem5/gem5-prof/configs/example/se.py --cpu-type O3CPU --cpu-clock 1GHz --num-cpu 1 --l1d-hwp-type=BOPPrefetcher --caches --l2cache --l1i_size 32kB --l1d_size 32kB --l2_size 1MB --l1i_assoc 8 --l1d_assoc 8 --l2_assoc 16 --cacheline_size 64 --mem-type DDR3_2133_8x8 --mem-size 16GB --restore-simpoint-checkpoint -r 2 --checkpoint-dir /data/zxf/checkpoint/spec2006/473.astar/ckpt -c astar_base.gcc41-64bit -o rivers.cfg

info: Standard input is not a terminal, disabling listeners.
Resuming from /data/zxf/checkpoint/spec2006/473.astar/ckpt/cpt.simpoint_01_inst_95390000000_weight_0.054864_interval_300000000_warmup_10000000
Resuming from SimPoint #1, start_inst:95390000000, weight:0.054864, interval:300000000, warmup:10000000
Switch at curTick count:10000
Switched CPUS @ tick 63811160562500
[(<m5.objects.ArmCPU.ArmAtomicSimpleCPU object at 0x7f12cf783bb0>, <m5.objects.ArmCPU.ArmO3CPU object at 0x7f12cf79be20>)]
switching cpus



+++++++++++++++++++++++++zxf print simpoint+++++++++++++++++++++++++++
Warmed up! Dumping and resetting stats!


=============start sim!!!!!!=============
PC:1483a     Total:396      MisBP:0   MisRate:0.00%    MPKI:0.00
PC:2d642     Total:63      MisBP:0   MisRate:0.00%    MPKI:0.00
PC:148d6     Total:495      MisBP:0   MisRate:0.00%    MPKI:0.00
PC:2ddf2     Total:36      MisBP:0   MisRate:0.00%    MPKI:0.00
PC:148da     Total:393      MisBP:0   MisRate:0.00%    MPKI:0.00
PC:148de     Total:393      MisBP:0   MisRate:0.00%    MPKI:0.00
PC:148e2     Total:393      MisBP:0   MisRate:0.00%    MPKI:0.00
PC:148e6     Total:393      MisBP:0   MisRate:0.00%    MPKI:0.00
PC:2d656     Total:35      MisBP:0   MisRate:0.00%    MPKI:0.00
PC:148ea     Total:393      MisBP:0   MisRate:0.00%    MPKI:0.00
PC:2d5a6     Total:106      MisBP:0   MisRate:0.00%    MPKI:0.00
PC:2ddf0     Total:36      MisBP:0   MisRate:0.00%    MPKI:0.00
PC:1179e     Total:4316      MisBP:0   MisRate:0.00%    MPKI:0.00
PC:4a9b0     Total:48      MisBP:0   MisRate:0.00%    MPKI:0.00
PC:14842     Total:386      MisBP:0   MisRate:0.00%    MPKI:0.00
PC:2f48e     Total:538      MisBP:0   MisRate:0.00%    MPKI:0.00
PC:117a6     Total:9432      MisBP:0   MisRate:0.00%    MPKI:0.00
PC:4a9b8     Total:16      MisBP:0   MisRate:0.00%    MPKI:0.00
PC:14846     Total:386      MisBP:0   MisRate:0.00%    MPKI:0.00
PC:2f492     Total:537      MisBP:0   MisRate:0.00%    MPKI:0.00
PC:117aa     Total:9431      MisBP:0   MisRate:0.00%    MPKI:0.00
PC:148cc     Total:2511      MisBP:0   MisRate:0.00%    MPKI:0.00
PC:109f8     Total:32      MisBP:0   MisRate:0.00%    MPKI:0.00
PC:153a0     Total:290      MisBP:0   MisRate:0.00%    MPKI:0.00
PC:2d654     Total:35      MisBP:0   MisRate:0.00%    MPKI:0.00
PC:153a2     Total:290      MisBP:0   MisRate:0.00%    MPKI:0.00
PC:109fc     Total:32      MisBP:0   MisRate:0.00%    MPKI:0.00
PC:153a4     Total:290      MisBP:0   MisRate:0.00%    MPKI:0.00
PC:330f8     Total:46      MisBP:0   MisRate:0.00%    MPKI:0.00
PC:10922     Total:92      MisBP:0   MisRate:0.00%    MPKI:0.00
PC:2d638     Total:75      MisBP:0   MisRate:0.00%    MPKI:0.00
PC:4a9bc     Total:16      MisBP:0   MisRate:0.00%    MPKI:0.00
PC:2dde8     Total:36      MisBP:0   MisRate:0.00%    MPKI:0.00
PC:2d63a     Total:82      MisBP:0   MisRate:0.00%    MPKI:0.00
PC:148ce     Total:501      MisBP:0   MisRate:0.00%    MPKI:0.00
PC:2ddea     Total:36      MisBP:0   MisRate:0.00%    MPKI:0.00
PC:2d63c     Total:82      MisBP:0   MisRate:0.00%    MPKI:0.00
PC:148d0     Total:501      MisBP:0   MisRate:0.00%    MPKI:0.00
PC:2d63e     Total:82      MisBP:0   MisRate:0.00%    MPKI:0.00
PC:148d2     Total:501      MisBP:0   MisRate:0.00%    MPKI:0.00
PC:2ddee     Total:36      MisBP:0   MisRate:0.00%    MPKI:0.00
PC:2d5e4     Total:1      MisBP:0   MisRate:0.00%    MPKI:0.00
PC:2d5d8     Total:1      MisBP:0   MisRate:0.00%    MPKI:0.00
PC:1486c     Total:374      MisBP:0   MisRate:0.00%    MPKI:0.00
PC:2cb1e     Total:13      MisBP:0   MisRate:0.00%    MPKI:0.00
PC:2d5dc     Total:1      MisBP:0   MisRate:0.00%    MPKI:0.00
PC:14870     Total:373      MisBP:0   MisRate:0.00%    MPKI:0.00
PC:115f8     Total:28534      MisBP:0   MisRate:0.00%    MPKI:0.00
PC:2cb22     Total:13      MisBP:0   MisRate:0.00%    MPKI:0.00
PC:14874     Total:373      MisBP:0   MisRate:0.00%    MPKI:0.00
PC:115fc     Total:28513      MisBP:0   MisRate:0.00%    MPKI:0.00
PC:2cb26     Total:13      MisBP:0   MisRate:0.00%    MPKI:0.00
PC:14868     Total:374      MisBP:0   MisRate:0.00%    MPKI:0.00
PC:14878     Total:372      MisBP:0   MisRate:0.00%    MPKI:0.00
PC:11600     Total:27134      MisBP:0   MisRate:0.00%    MPKI:0.00
PC:2cb2a     Total:13      MisBP:0   MisRate:0.00%    MPKI:0.00
PC:2d5e6     Total:40      MisBP:0   MisRate:0.00%    MPKI:0.00
PC:1487a     Total:372      MisBP:0   MisRate:0.00%    MPKI:0.00
PC:2cb2c     Total:7      MisBP:0   MisRate:0.00%    MPKI:0.00
PC:2d5ea     Total:40      MisBP:0   MisRate:0.00%    MPKI:0.00
PC:1487e     Total:360      MisBP:0   MisRate:0.00%    MPKI:0.00
PC:2cb30     Total:7      MisBP:0   MisRate:0.00%    MPKI:0.00
PC:115e0     Total:37812      MisBP:0   MisRate:0.00%    MPKI:0.00
PC:1484a     Total:386      MisBP:0   MisRate:0.00%    MPKI:0.00
PC:1484e     Total:386      MisBP:0   MisRate:0.00%    MPKI:0.00
PC:14852     Total:386      MisBP:0   MisRate:0.00%    MPKI:0.00
PC:115da     Total:37839      MisBP:0   MisRate:0.00%    MPKI:0.00
PC:2cb04     Total:20      MisBP:0   MisRate:0.00%    MPKI:0.00
PC:2d5c0     Total:19      MisBP:0   MisRate:0.00%    MPKI:0.00
PC:14854     Total:385      MisBP:0   MisRate:0.00%    MPKI:0.00
PC:2d5c4     Total:19      MisBP:0   MisRate:0.00%    MPKI:0.00
PC:14858     Total:381      MisBP:0   MisRate:0.00%    MPKI:0.00
PC:30e9e     Total:34      MisBP:0   MisRate:0.00%    MPKI:0.00
PC:2cb0a     Total:20      MisBP:0   MisRate:0.00%    MPKI:0.00
PC:1485c     Total:381      MisBP:0   MisRate:0.00%    MPKI:0.00
PC:2cb0e     Total:20      MisBP:0   MisRate:0.00%    MPKI:0.00
PC:14860     Total:376      MisBP:0   MisRate:0.00%    MPKI:0.00
PC:2cb12     Total:20      MisBP:0   MisRate:0.00%    MPKI:0.00
PC:2d5d0     Total:19      MisBP:0   MisRate:0.00%    MPKI:0.00
PC:14864     Total:374      MisBP:0   MisRate:0.00%    MPKI:0.00
PC:2cb16     Total:13      MisBP:0   MisRate:0.00%    MPKI:0.00
PC:2d5d4     Total:1      MisBP:0   MisRate:0.00%    MPKI:0.00
PC:117a2     Total:4213      MisBP:0   MisRate:0.00%    MPKI:0.00
PC:1179a     Total:4317      MisBP:0   MisRate:0.00%    MPKI:0.00
PC:4a9ac     Total:16      MisBP:0   MisRate:0.00%    MPKI:0.00
PC:115c0     Total:38730      MisBP:0   MisRate:0.00%    MPKI:0.00
PC:2caea     Total:21      MisBP:0   MisRate:0.00%    MPKI:0.00
PC:115c4     Total:38723      MisBP:0   MisRate:0.00%    MPKI:0.00
PC:2caee     Total:21      MisBP:0   MisRate:0.00%    MPKI:0.00
PC:2caf0     Total:21      MisBP:0   MisRate:0.00%    MPKI:0.00
PC:2d5aa     Total:95      MisBP:0   MisRate:0.00%    MPKI:0.00
PC:1483e     Total:386      MisBP:0   MisRate:0.00%    MPKI:0.00
PC:2f48a     Total:538      MisBP:0   MisRate:0.00%    MPKI:0.00
PC:14836     Total:398      MisBP:0   MisRate:0.00%    MPKI:0.00
PC:4a9b4     Total:16      MisBP:0   MisRate:0.00%    MPKI:0.00
PC:115c8     Total:38723      MisBP:0   MisRate:0.00%    MPKI:0.00
PC:2caf2     Total:21      MisBP:0   MisRate:0.00%    MPKI:0.00
PC:115cc     Total:38723      MisBP:0   MisRate:0.00%    MPKI:0.00
PC:2caf6     Total:21      MisBP:0   MisRate:0.00%    MPKI:0.00
PC:2d5b0     Total:94      MisBP:0   MisRate:0.00%    MPKI:0.00
PC:14844     Total:386      MisBP:0   MisRate:0.00%    MPKI:0.00
PC:2f490     Total:538      MisBP:0   MisRate:0.00%    MPKI:0.00
PC:117a8     Total:9432      MisBP:0   MisRate:0.00%    MPKI:0.00
PC:35e32     Total:42      MisBP:0   MisRate:0.00%    MPKI:0.00
PC:2cadc     Total:21      MisBP:0   MisRate:0.00%    MPKI:0.00
PC:1482a     Total:402      MisBP:0   MisRate:0.00%    MPKI:0.00
PC:35e2c     Total:42      MisBP:0   MisRate:0.00%    MPKI:0.00
PC:2cade     Total:21      MisBP:0   MisRate:0.00%    MPKI:0.00
PC:2cae0     Total:21      MisBP:0   MisRate:0.00%    MPKI:0.00
PC:2d59a     Total:106      MisBP:0   MisRate:0.00%    MPKI:0.00
PC:1482e     Total:398      MisBP:0   MisRate:0.00%    MPKI:0.00
PC:115b8     Total:17625      MisBP:0   MisRate:0.00%    MPKI:0.00
PC:2cae2     Total:21      MisBP:0   MisRate:0.00%    MPKI:0.00
PC:4a9ba     Total:16      MisBP:0   MisRate:0.00%    MPKI:0.00
PC:115ba     Total:17602      MisBP:0   MisRate:0.00%    MPKI:0.00
PC:2cae4     Total:21      MisBP:0   MisRate:0.00%    MPKI:0.00
PC:2d59e     Total:106      MisBP:0   MisRate:0.00%    MPKI:0.00
PC:14832     Total:398      MisBP:0   MisRate:0.00%    MPKI:0.00
PC:2f47e     Total:13      MisBP:0   MisRate:0.00%    MPKI:0.00
PC:11796     Total:4317      MisBP:0   MisRate:0.00%    MPKI:0.00
PC:4a9a8     Total:179      MisBP:0   MisRate:0.00%    MPKI:0.00
PC:115be     Total:40267      MisBP:0   MisRate:0.00%    MPKI:0.00
PC:2cae8     Total:21      MisBP:0   MisRate:0.00%    MPKI:0.00
PC:109ee     Total:32      MisBP:0   MisRate:0.00%    MPKI:0.00
PC:2cd72     Total:22      MisBP:0   MisRate:0.00%    MPKI:0.00
PC:2cd76     Total:22      MisBP:0   MisRate:0.00%    MPKI:0.00
PC:2cd7a     Total:22      MisBP:0   MisRate:0.00%    MPKI:0.00
PC:2cd7e     Total:34      MisBP:0   MisRate:0.00%    MPKI:0.00
PC:2c986     Total:62      MisBP:0   MisRate:0.00%    MPKI:0.00
PC:2c988     Total:434      MisBP:0   MisRate:0.00%    MPKI:0.00
PC:30e8e     Total:46      MisBP:0   MisRate:0.00%    MPKI:0.00
PC:109e8     Total:33      MisBP:0   MisRate:0.00%    MPKI:0.00
PC:109ea     Total:33      MisBP:0   MisRate:0.00%    MPKI:0.00
PC:2d644     Total:35      MisBP:0   MisRate:0.00%    MPKI:0.00
PC:2cd6a     Total:22      MisBP:0   MisRate:0.00%    MPKI:0.00
PC:2d648     Total:35      MisBP:0   MisRate:0.00%    MPKI:0.00
PC:15396     Total:2938      MisBP:0   MisRate:0.00%    MPKI:0.00
PC:30e96     Total:36      MisBP:0   MisRate:0.00%    MPKI:0.00
PC:109f0     Total:32      MisBP:0   MisRate:0.00%    MPKI:0.00
PC:30e98     Total:34      MisBP:0   MisRate:0.00%    MPKI:0.00
PC:109f2     Total:32      MisBP:0   MisRate:0.00%    MPKI:0.00
PC:2d64c     Total:35      MisBP:0   MisRate:0.00%    MPKI:0.00
PC:1539a     Total:291      MisBP:0   MisRate:0.00%    MPKI:0.00
PC:1539c     Total:291      MisBP:0   MisRate:0.00%    MPKI:0.00
PC:2cd42     Total:84      MisBP:0   MisRate:0.00%    MPKI:0.00
PC:2cafa     Total:21      MisBP:0   MisRate:0.00%    MPKI:0.00
PC:4aa1a     Total:1      MisBP:0   MisRate:0.00%    MPKI:0.00
PC:2cd32     Total:74      MisBP:0   MisRate:0.00%    MPKI:0.00
PC:4aa1e     Total:1      MisBP:0   MisRate:0.00%    MPKI:0.00
PC:2cd36     Total:74      MisBP:0   MisRate:0.00%    MPKI:0.00
PC:4aa22     Total:1      MisBP:0   MisRate:0.00%    MPKI:0.00
PC:2cd3a     Total:92      MisBP:0   MisRate:0.00%    MPKI:0.00
PC:4aa26     Total:1      MisBP:0   MisRate:0.00%    MPKI:0.00
PC:2cd3e     Total:84      MisBP:0   MisRate:0.00%    MPKI:0.00
PC:2d5ee     Total:39      MisBP:0   MisRate:0.00%    MPKI:0.00
PC:2cd46     Total:84      MisBP:0   MisRate:0.00%    MPKI:0.00
PC:4aa32     Total:1      MisBP:0   MisRate:0.00%    MPKI:0.00
PC:22e52     Total:22      MisBP:0   MisRate:0.00%    MPKI:0.00
PC:2cd4a     Total:84      MisBP:0   MisRate:0.00%    MPKI:0.00
PC:22e56     Total:66      MisBP:0   MisRate:0.00%    MPKI:0.00
PC:2cd4e     Total:84      MisBP:0   MisRate:0.00%    MPKI:0.00
PC:2cd52     Total:84      MisBP:0   MisRate:0.00%    MPKI:0.00
PC:2cd5a     Total:25      MisBP:0   MisRate:0.00%    MPKI:0.00
PC:2cd5e     Total:25      MisBP:0   MisRate:0.00%    MPKI:0.00
PC:14fba     Total:240      MisBP:0   MisRate:0.00%    MPKI:0.00
PC:30e92     Total:46      MisBP:0   MisRate:0.00%    MPKI:0.00
PC:11d6c     Total:148      MisBP:0   MisRate:0.00%    MPKI:0.00
PC:154aa     Total:104      MisBP:0   MisRate:0.00%    MPKI:0.00
PC:109f4     Total:32      MisBP:0   MisRate:0.00%    MPKI:0.00
PC:30e9a     Total:34      MisBP:0   MisRate:0.00%    MPKI:0.00
PC:14fb0     Total:244      MisBP:0   MisRate:0.00%    MPKI:0.00
PC:14fb2     Total:243      MisBP:0   MisRate:0.00%    MPKI:0.00
PC:14fb4     Total:240      MisBP:0   MisRate:0.00%    MPKI:0.00
PC:14fb6     Total:240      MisBP:0   MisRate:0.00%    MPKI:0.00
PC:14fb8     Total:240      MisBP:0   MisRate:0.00%    MPKI:0.00
PC:154a2     Total:105      MisBP:0   MisRate:0.00%    MPKI:0.00
PC:14fbc     Total:240      MisBP:0   MisRate:0.00%    MPKI:0.00
PC:14fbe     Total:465      MisBP:0   MisRate:0.00%    MPKI:0.00
PC:14fc0     Total:215      MisBP:0   MisRate:0.00%    MPKI:0.00
PC:14fc2     Total:214      MisBP:0   MisRate:0.00%    MPKI:0.00
PC:14fc6     Total:208      MisBP:0   MisRate:0.00%    MPKI:0.00
PC:14fc8     Total:208      MisBP:0   MisRate:0.00%    MPKI:0.00
PC:14fca     Total:208      MisBP:0   MisRate:0.00%    MPKI:0.00
PC:14fcc     Total:208      MisBP:0   MisRate:0.00%    MPKI:0.00
PC:14fce     Total:208      MisBP:0   MisRate:0.00%    MPKI:0.00
PC:10f40     Total:158      MisBP:0   MisRate:0.00%    MPKI:0.00
PC:3f6c2     Total:2      MisBP:0   MisRate:0.00%    MPKI:0.00
PC:15324     Total:79      MisBP:0   MisRate:0.00%    MPKI:0.00
PC:10980     Total:176      MisBP:0   MisRate:0.00%    MPKI:0.00
PC:3f6c6     Total:2      MisBP:0   MisRate:0.00%    MPKI:0.00
PC:15328     Total:79      MisBP:0   MisRate:0.00%    MPKI:0.00
PC:108f4     Total:81      MisBP:0   MisRate:0.00%    MPKI:0.00
PC:10f3a     Total:164      MisBP:0   MisRate:0.00%    MPKI:0.00
PC:10f3c     Total:164      MisBP:0   MisRate:0.00%    MPKI:0.00
PC:2c92c     Total:2      MisBP:0   MisRate:0.00%    MPKI:0.00
PC:14fd0     Total:217      MisBP:0   MisRate:0.00%    MPKI:0.00
PC:2c930     Total:2      MisBP:0   MisRate:0.00%    MPKI:0.00
PC:10f44     Total:163      MisBP:0   MisRate:0.00%    MPKI:0.00
PC:2c934     Total:2      MisBP:0   MisRate:0.00%    MPKI:0.00
PC:10f46     Total:163      MisBP:0   MisRate:0.00%    MPKI:0.00
PC:2c936     Total:2      MisBP:0   MisRate:0.00%    MPKI:0.00
PC:2c93a     Total:2      MisBP:0   MisRate:0.00%    MPKI:0.00
PC:2c93e     Total:2      MisBP:0   MisRate:0.00%    MPKI:0.00
PC:10f54     Total:172      MisBP:0   MisRate:0.00%    MPKI:0.00
PC:11d64     Total:133      MisBP:0   MisRate:0.00%    MPKI:0.00
PC:2d7a0     Total:1      MisBP:0   MisRate:0.00%    MPKI:0.00
PC:2d796     Total:1      MisBP:0   MisRate:0.00%    MPKI:0.00
PC:11daa     Total:95      MisBP:0   MisRate:0.00%    MPKI:0.00
PC:2d79a     Total:1      MisBP:0   MisRate:0.00%    MPKI:0.00
PC:154e8     Total:23      MisBP:0   MisRate:0.00%    MPKI:0.00
PC:11dac     Total:95      MisBP:0   MisRate:0.00%    MPKI:0.00
PC:2d79c     Total:1      MisBP:0   MisRate:0.00%    MPKI:0.00
PC:11dae     Total:95      MisBP:0   MisRate:0.00%    MPKI:0.00
PC:2d79e     Total:1      MisBP:0   MisRate:0.00%    MPKI:0.00
PC:154ec     Total:23      MisBP:0   MisRate:0.00%    MPKI:0.00
PC:11db0     Total:95      MisBP:0   MisRate:0.00%    MPKI:0.00
PC:11da6     Total:95      MisBP:0   MisRate:0.00%    MPKI:0.00
PC:11db2     Total:95      MisBP:0   MisRate:0.00%    MPKI:0.00
PC:2d7a2     Total:1      MisBP:0   MisRate:0.00%    MPKI:0.00
PC:154f0     Total:23      MisBP:0   MisRate:0.00%    MPKI:0.00
PC:11db4     Total:95      MisBP:0   MisRate:0.00%    MPKI:0.00
PC:2d7a4     Total:1      MisBP:0   MisRate:0.00%    MPKI:0.00
PC:11db6     Total:95      MisBP:0   MisRate:0.00%    MPKI:0.00
PC:154f4     Total:23      MisBP:0   MisRate:0.00%    MPKI:0.00
PC:11db8     Total:95      MisBP:0   MisRate:0.00%    MPKI:0.00
PC:154f6     Total:23      MisBP:0   MisRate:0.00%    MPKI:0.00
PC:11d96     Total:95      MisBP:0   MisRate:0.00%    MPKI:0.00
PC:14fd2     Total:434      MisBP:0   MisRate:0.00%    MPKI:0.00
PC:14fd6     Total:217      MisBP:0   MisRate:0.00%    MPKI:0.00
PC:11d88     Total:115      MisBP:0   MisRate:0.00%    MPKI:0.00
PC:11d8e     Total:115      MisBP:0   MisRate:0.00%    MPKI:0.00
PC:154cc     Total:50      MisBP:0   MisRate:0.00%    MPKI:0.00
PC:11d92     Total:95      MisBP:0   MisRate:0.00%    MPKI:0.00
PC:2d782     Total:6      MisBP:0   MisRate:0.00%    MPKI:0.00
PC:154d0     Total:50      MisBP:0   MisRate:0.00%    MPKI:0.00
PC:154d2     Total:50      MisBP:0   MisRate:0.00%    MPKI:0.00
PC:1097c     Total:140      MisBP:0   MisRate:0.00%    MPKI:0.00
PC:11d9a     Total:95      MisBP:0   MisRate:0.00%    MPKI:0.00
PC:2d78a     Total:6      MisBP:0   MisRate:0.00%    MPKI:0.00
PC:11d9c     Total:95      MisBP:0   MisRate:0.00%    MPKI:0.00
PC:154da     Total:108      MisBP:0   MisRate:0.00%    MPKI:0.00
PC:11da0     Total:95      MisBP:0   MisRate:0.00%    MPKI:0.00
PC:154de     Total:100      MisBP:0   MisRate:0.00%    MPKI:0.00
PC:11da4     Total:95      MisBP:0   MisRate:0.00%    MPKI:0.00
PC:2d794     Total:1      MisBP:0   MisRate:0.00%    MPKI:0.00
PC:154e2     Total:100      MisBP:0   MisRate:0.00%    MPKI:0.00
PC:1561c     Total:255      MisBP:0   MisRate:0.00%    MPKI:0.00
PC:2d8be     Total:15      MisBP:0   MisRate:0.00%    MPKI:0.00
PC:1560e     Total:226      MisBP:0   MisRate:0.00%    MPKI:0.00
PC:15610     Total:226      MisBP:0   MisRate:0.00%    MPKI:0.00
PC:2d8c2     Total:15      MisBP:0   MisRate:0.00%    MPKI:0.00
PC:15612     Total:2030      MisBP:0   MisRate:0.00%    MPKI:0.00
PC:2d8c4     Total:15      MisBP:0   MisRate:0.00%    MPKI:0.00
PC:15616     Total:255      MisBP:0   MisRate:0.00%    MPKI:0.00
PC:2d8c8     Total:15      MisBP:0   MisRate:0.00%    MPKI:0.00
PC:1561a     Total:255      MisBP:0   MisRate:0.00%    MPKI:0.00
PC:2d8cc     Total:15      MisBP:0   MisRate:0.00%    MPKI:0.00
PC:1560c     Total:226      MisBP:0   MisRate:0.00%    MPKI:0.00
PC:2d8ce     Total:15      MisBP:0   MisRate:0.00%    MPKI:0.00
PC:15620     Total:255      MisBP:0   MisRate:0.00%    MPKI:0.00
PC:2d8d2     Total:15      MisBP:0   MisRate:0.00%    MPKI:0.00
PC:15624     Total:247      MisBP:0   MisRate:0.00%    MPKI:0.00
PC:2d8d6     Total:15      MisBP:0   MisRate:0.00%    MPKI:0.00
PC:15626     Total:247      MisBP:0   MisRate:0.00%    MPKI:0.00
PC:15628     Total:247      MisBP:0   MisRate:0.00%    MPKI:0.00
PC:2d8da     Total:15      MisBP:0   MisRate:0.00%    MPKI:0.00
PC:1562c     Total:247      MisBP:0   MisRate:0.00%    MPKI:0.00
PC:14890     Total:395      MisBP:0   MisRate:0.00%    MPKI:0.00
PC:14882     Total:360      MisBP:0   MisRate:0.00%    MPKI:0.00
PC:2d5f2     Total:13      MisBP:0   MisRate:0.00%    MPKI:0.00
PC:14886     Total:360      MisBP:0   MisRate:0.00%    MPKI:0.00
PC:14888     Total:1977      MisBP:0   MisRate:0.00%    MPKI:0.00
PC:11610     Total:24118      MisBP:0   MisRate:0.00%    MPKI:0.00
PC:2cb3a     Total:7      MisBP:0   MisRate:0.00%    MPKI:0.00
PC:2d5f8     Total:13      MisBP:0   MisRate:0.00%    MPKI:0.00
PC:1488c     Total:395      MisBP:0   MisRate:0.00%    MPKI:0.00
PC:2d5fc     Total:13      MisBP:0   MisRate:0.00%    MPKI:0.00
PC:2d8de     Total:15      MisBP:0   MisRate:0.00%    MPKI:0.00
PC:2d600     Total:8      MisBP:0   MisRate:0.00%    MPKI:0.00
PC:14894     Total:395      MisBP:0   MisRate:0.00%    MPKI:0.00
PC:14898     Total:395      MisBP:0   MisRate:0.00%    MPKI:0.00
PC:2d608     Total:8      MisBP:0   MisRate:0.00%    MPKI:0.00
PC:1489c     Total:395      MisBP:0   MisRate:0.00%    MPKI:0.00
PC:152da     Total:89      MisBP:0   MisRate:0.00%    MPKI:0.00
PC:10938     Total:159      MisBP:0   MisRate:0.00%    MPKI:0.00
PC:3f67e     Total:13      MisBP:0   MisRate:0.00%    MPKI:0.00
PC:152e0     Total:89      MisBP:0   MisRate:0.00%    MPKI:0.00
PC:152fc     Total:81      MisBP:0   MisRate:0.00%    MPKI:0.00
PC:15678     Total:161      MisBP:0   MisRate:0.00%    MPKI:0.00
PC:1567c     Total:161      MisBP:0   MisRate:0.00%    MPKI:0.00
PC:156ca     Total:169      MisBP:0   MisRate:0.00%    MPKI:0.00
PC:156cc     Total:169      MisBP:0   MisRate:0.00%    MPKI:0.00
PC:156ce     Total:169      MisBP:0   MisRate:0.00%    MPKI:0.00
PC:156d0     Total:169      MisBP:0   MisRate:0.00%    MPKI:0.00
PC:156d4     Total:1014      MisBP:0   MisRate:0.00%    MPKI:0.00
PC:2d986     Total:13      MisBP:0   MisRate:0.00%    MPKI:0.00
PC:10954     Total:111      MisBP:0   MisRate:0.00%    MPKI:0.00
PC:3f69a     Total:12      MisBP:0   MisRate:0.00%    MPKI:0.00
PC:15674     Total:161      MisBP:0   MisRate:0.00%    MPKI:0.00
PC:10958     Total:111      MisBP:0   MisRate:0.00%    MPKI:0.00
PC:15300     Total:79      MisBP:0   MisRate:0.00%    MPKI:0.00
PC:10960     Total:77      MisBP:0   MisRate:0.00%    MPKI:0.00
PC:3f6a6     Total:12      MisBP:0   MisRate:0.00%    MPKI:0.00
PC:15308     Total:79      MisBP:0   MisRate:0.00%    MPKI:0.00
PC:10968     Total:77      MisBP:0   MisRate:0.00%    MPKI:0.00
PC:15310     Total:79      MisBP:0   MisRate:0.00%    MPKI:0.00
PC:3f6b8     Total:3      MisBP:0   MisRate:0.00%    MPKI:0.00
PC:1531a     Total:79      MisBP:0   MisRate:0.00%    MPKI:0.00
PC:1563c     Total:246      MisBP:0   MisRate:0.00%    MPKI:0.00
PC:1562e     Total:247      MisBP:0   MisRate:0.00%    MPKI:0.00
PC:2d8e0     Total:15      MisBP:0   MisRate:0.00%    MPKI:0.00
PC:15632     Total:247      MisBP:0   MisRate:0.00%    MPKI:0.00
PC:2d8e4     Total:15      MisBP:0   MisRate:0.00%    MPKI:0.00
PC:15634     Total:246      MisBP:0   MisRate:0.00%    MPKI:0.00
PC:2d8e6     Total:15      MisBP:0   MisRate:0.00%    MPKI:0.00
PC:15636     Total:246      MisBP:0   MisRate:0.00%    MPKI:0.00
PC:1563a     Total:246      MisBP:0   MisRate:0.00%    MPKI:0.00
PC:2d8ec     Total:7      MisBP:0   MisRate:0.00%    MPKI:0.00
PC:115b2     Total:10508      MisBP:0   MisRate:0.00%    MPKI:0.00
PC:15640     Total:245      MisBP:0   MisRate:0.00%    MPKI:0.00
PC:2d8f4     Total:18      MisBP:0   MisRate:0.00%    MPKI:0.00
PC:15644     Total:161      MisBP:0   MisRate:0.00%    MPKI:0.00
PC:15646     Total:161      MisBP:0   MisRate:0.00%    MPKI:0.00
PC:15652     Total:161      MisBP:0   MisRate:0.00%    MPKI:0.00
PC:15656     Total:161      MisBP:0   MisRate:0.00%    MPKI:0.00
PC:1565a     Total:161      MisBP:0   MisRate:0.00%    MPKI:0.00
PC:1566c     Total:161      MisBP:0   MisRate:0.00%    MPKI:0.00
PC:15670     Total:161      MisBP:0   MisRate:0.00%    MPKI:0.00
PC:2d52e     Total:112      MisBP:0   MisRate:0.00%    MPKI:0.00
PC:3f682     Total:12      MisBP:0   MisRate:0.00%    MPKI:0.00
PC:150e4     Total:13856794      MisBP:0   MisRate:0.00%    MPKI:0.00
PC:2d5bc     Total:92      MisBP:0   MisRate:0.00%    MPKI:0.00
PC:1530a     Total:79      MisBP:0   MisRate:0.00%    MPKI:0.00
PC:150ea     Total:13847600      MisBP:0   MisRate:0.00%    MPKI:0.00
PC:2d39c     Total:41      MisBP:0   MisRate:0.00%    MPKI:0.00
PC:150fe     Total:4883003      MisBP:0   MisRate:0.00%    MPKI:0.00
PC:147fe     Total:426      MisBP:0   MisRate:0.00%    MPKI:0.00
PC:2d56a     Total:220      MisBP:0   MisRate:0.00%    MPKI:0.00
PC:10910     Total:117      MisBP:0   MisRate:0.00%    MPKI:0.00
PC:152e4     Total:89      MisBP:0   MisRate:0.00%    MPKI:0.00
PC:2ef36     Total:43      MisBP:0   MisRate:0.00%    MPKI:0.00
PC:26e50     Total:53      MisBP:0   MisRate:0.00%    MPKI:0.00
PC:2dccc     Total:12      MisBP:0   MisRate:0.00%    MPKI:0.00
PC:2d5de     Total:1      MisBP:0   MisRate:0.00%    MPKI:0.00
PC:1532c     Total:79      MisBP:0   MisRate:0.00%    MPKI:0.00
PC:2ef4a     Total:42      MisBP:0   MisRate:0.00%    MPKI:0.00
PC:2dce0     Total:1      MisBP:0   MisRate:0.00%    MPKI:0.00
PC:2ef54     Total:42      MisBP:0   MisRate:0.00%    MPKI:0.00
PC:11556     Total:90      MisBP:0   MisRate:0.00%    MPKI:0.00
PC:3f668     Total:13      MisBP:0   MisRate:0.00%    MPKI:0.00
PC:15486     Total:74      MisBP:0   MisRate:0.00%    MPKI:0.00
PC:109d0     Total:63      MisBP:0   MisRate:0.00%    MPKI:0.00
PC:30e76     Total:57      MisBP:0   MisRate:0.00%    MPKI:0.00
PC:15278     Total:10675744      MisBP:0   MisRate:0.00%    MPKI:0.00
PC:2d52a     Total:112      MisBP:0   MisRate:0.00%    MPKI:0.00
PC:3313c     Total:1      MisBP:0   MisRate:0.00%    MPKI:0.00
PC:1516e     Total:6336018      MisBP:0   MisRate:0.00%    MPKI:0.00
PC:2d750     Total:21      MisBP:0   MisRate:0.00%    MPKI:0.00
PC:11d60     Total:135      MisBP:0   MisRate:0.00%    MPKI:0.00
PC:2ca80     Total:80      MisBP:0   MisRate:0.00%    MPKI:0.00
PC:2d530     Total:112      MisBP:0   MisRate:0.00%    MPKI:0.00
PC:15284     Total:5640907      MisBP:0   MisRate:0.00%    MPKI:0.00
PC:2d536     Total:203      MisBP:0   MisRate:0.00%    MPKI:0.00
PC:15286     Total:5638577      MisBP:0   MisRate:0.00%    MPKI:0.00
PC:2d538     Total:203      MisBP:0   MisRate:0.00%    MPKI:0.00
PC:1528a     Total:5634383      MisBP:0   MisRate:0.00%    MPKI:0.00
PC:2d53c     Total:203      MisBP:0   MisRate:0.00%    MPKI:0.00
PC:15294     Total:5629955      MisBP:0   MisRate:0.00%    MPKI:0.00
PC:2d546     Total:178      MisBP:0   MisRate:0.00%    MPKI:0.00
PC:2d564     Total:228      MisBP:0   MisRate:0.00%    MPKI:0.00
PC:2d60e     Total:22      MisBP:0   MisRate:0.00%    MPKI:0.00
PC:4f41a     Total:49      MisBP:0   MisRate:0.00%    MPKI:0.00
PC:2ef74     Total:102      MisBP:0   MisRate:0.00%    MPKI:0.00
PC:147ee     Total:412      MisBP:0   MisRate:0.00%    MPKI:0.00
PC:2d580     Total:211      MisBP:0   MisRate:0.00%    MPKI:0.00
PC:10926     Total:92      MisBP:0   MisRate:0.00%    MPKI:0.00
PC:4f424     Total:6      MisBP:0   MisRate:0.00%    MPKI:0.00
PC:2ef7e     Total:102      MisBP:0   MisRate:0.00%    MPKI:0.00
PC:11580     Total:24065      MisBP:0   MisRate:0.00%    MPKI:0.00
PC:2caaa     Total:22      MisBP:0   MisRate:0.00%    MPKI:0.00
PC:26e84     Total:1      MisBP:0   MisRate:0.00%    MPKI:0.00
PC:147f8     Total:444      MisBP:0   MisRate:0.00%    MPKI:0.00
PC:2d622     Total:539      MisBP:0   MisRate:0.00%    MPKI:0.00
PC:2c3b8     Total:5      MisBP:0   MisRate:0.00%    MPKI:0.00
PC:2d584     Total:209      MisBP:0   MisRate:0.00%    MPKI:0.00
PC:152d2     Total:89      MisBP:0   MisRate:0.00%    MPKI:0.00
PC:4f428     Total:6      MisBP:0   MisRate:0.00%    MPKI:0.00
PC:2ef82     Total:95      MisBP:0   MisRate:0.00%    MPKI:0.00
PC:11584     Total:24000      MisBP:0   MisRate:0.00%    MPKI:0.00
PC:2caae     Total:22      MisBP:0   MisRate:0.00%    MPKI:0.00
PC:26e76     Total:31      MisBP:0   MisRate:0.00%    MPKI:0.00
PC:26e6e     Total:31      MisBP:0   MisRate:0.00%    MPKI:0.00
PC:2dcea     Total:1      MisBP:0   MisRate:0.00%    MPKI:0.00
PC:2ef58     Total:42      MisBP:0   MisRate:0.00%    MPKI:0.00
PC:2ca84     Total:80      MisBP:0   MisRate:0.00%    MPKI:0.00
PC:26e72     Total:31      MisBP:0   MisRate:0.00%    MPKI:0.00
PC:2dcee     Total:1      MisBP:0   MisRate:0.00%    MPKI:0.00
PC:2ef5c     Total:41      MisBP:0   MisRate:0.00%    MPKI:0.00
PC:1155e     Total:90      MisBP:0   MisRate:0.00%    MPKI:0.00
PC:2ca88     Total:80      MisBP:0   MisRate:0.00%    MPKI:0.00
PC:2d738     Total:16      MisBP:0   MisRate:0.00%    MPKI:0.00
PC:2dcf2     Total:1      MisBP:0   MisRate:0.00%    MPKI:0.00
PC:2ef60     Total:41      MisBP:0   MisRate:0.00%    MPKI:0.00
PC:2ca8c     Total:80      MisBP:0   MisRate:0.00%    MPKI:0.00
PC:2dcf6     Total:1      MisBP:0   MisRate:0.00%    MPKI:0.00
PC:2ef6a     Total:102      MisBP:0   MisRate:0.00%    MPKI:0.00
PC:1156c     Total:88      MisBP:0   MisRate:0.00%    MPKI:0.00
PC:2ca96     Total:79      MisBP:0   MisRate:0.00%    MPKI:0.00
PC:2d550     Total:178      MisBP:0   MisRate:0.00%    MPKI:0.00
PC:147e4     Total:417      MisBP:0   MisRate:0.00%    MPKI:0.00
PC:109a8     Total:110      MisBP:0   MisRate:0.00%    MPKI:0.00
PC:2d4d4     Total:7      MisBP:0   MisRate:0.00%    MPKI:0.00
PC:151ec     Total:869257      MisBP:0   MisRate:0.00%    MPKI:0.00
PC:32296     Total:1      MisBP:0   MisRate:0.00%    MPKI:0.00
PC:11df0     Total:75      MisBP:0   MisRate:0.00%    MPKI:0.00
PC:1552e     Total:70      MisBP:0   MisRate:0.00%    MPKI:0.00
PC:15224     Total:2920010      MisBP:0   MisRate:0.00%    MPKI:0.00
PC:2d4d6     Total:7      MisBP:0   MisRate:0.00%    MPKI:0.00
PC:1512e     Total:12651981      MisBP:0   MisRate:0.00%    MPKI:0.00
PC:2d3e0     Total:1      MisBP:0   MisRate:0.00%    MPKI:0.00
PC:10a3a     Total:1      MisBP:0   MisRate:0.00%    MPKI:0.00
PC:15222     Total:2920866      MisBP:0   MisRate:0.00%    MPKI:0.00
PC:30e4e     Total:61      MisBP:0   MisRate:0.00%    MPKI:0.00
PC:2c4a6     Total:2      MisBP:0   MisRate:0.00%    MPKI:0.00
PC:2d714     Total:83      MisBP:0   MisRate:0.00%    MPKI:0.00
PC:109ac     Total:110      MisBP:0   MisRate:0.00%    MPKI:0.00
PC:30e52     Total:61      MisBP:0   MisRate:0.00%    MPKI:0.00
PC:15240     Total:14150649      MisBP:0   MisRate:0.00%    MPKI:0.00
PC:2d4f2     Total:83      MisBP:0   MisRate:0.00%    MPKI:0.00
PC:2d718     Total:83      MisBP:0   MisRate:0.00%    MPKI:0.00
PC:30e56     Total:60      MisBP:0   MisRate:0.00%    MPKI:0.00
PC:11dee     Total:75      MisBP:0   MisRate:0.00%    MPKI:0.00
PC:2d57a     Total:211      MisBP:0   MisRate:0.00%    MPKI:0.00
PC:10920     Total:92      MisBP:0   MisRate:0.00%    MPKI:0.00
PC:2cf56     Total:1      MisBP:0   MisRate:0.00%    MPKI:0.00
PC:2ca90     Total:80      MisBP:0   MisRate:0.00%    MPKI:0.00
PC:11566     Total:90      MisBP:0   MisRate:0.00%    MPKI:0.00
PC:1521e     Total:2922048      MisBP:0   MisRate:0.00%    MPKI:0.00
PC:2d4d0     Total:7      MisBP:0   MisRate:0.00%    MPKI:0.00
PC:11544     Total:90      MisBP:0   MisRate:0.00%    MPKI:0.00
PC:32294     Total:1      MisBP:0   MisRate:0.00%    MPKI:0.00
PC:2c4ae     Total:2      MisBP:0   MisRate:0.00%    MPKI:0.00
PC:2d7de     Total:5      MisBP:0   MisRate:0.00%    MPKI:0.00
PC:4f422     Total:6      MisBP:0   MisRate:0.00%    MPKI:0.00
PC:2ef7c     Total:102      MisBP:0   MisRate:0.00%    MPKI:0.00
PC:2caa8     Total:22      MisBP:0   MisRate:0.00%    MPKI:0.00
PC:147f6     Total:444      MisBP:0   MisRate:0.00%    MPKI:0.00
PC:26e96     Total:26      MisBP:0   MisRate:0.00%    MPKI:0.00
PC:14812     Total:412      MisBP:0   MisRate:0.00%    MPKI:0.00
PC:3f66a     Total:130      MisBP:0   MisRate:0.00%    MPKI:0.00
PC:152cc     Total:623      MisBP:0   MisRate:0.00%    MPKI:0.00
PC:1547c     Total:78      MisBP:0   MisRate:0.00%    MPKI:0.00
PC:2d502     Total:82      MisBP:0   MisRate:0.00%    MPKI:0.00
PC:2d728     Total:16      MisBP:0   MisRate:0.00%    MPKI:0.00
PC:15148     Total:333650      MisBP:0   MisRate:0.00%    MPKI:0.00
PC:2d3fa     Total:2      MisBP:0   MisRate:0.00%    MPKI:0.00
PC:2d72a     Total:16      MisBP:0   MisRate:0.00%    MPKI:0.00
PC:15478     Total:133      MisBP:0   MisRate:0.00%    MPKI:0.00
PC:109c2     Total:90      MisBP:0   MisRate:0.00%    MPKI:0.00
PC:30e68     Total:57      MisBP:0   MisRate:0.00%    MPKI:0.00
PC:1514c     Total:333638      MisBP:0   MisRate:0.00%    MPKI:0.00
PC:2d72e     Total:16      MisBP:0   MisRate:0.00%    MPKI:0.00
PC:15250     Total:701624      MisBP:0   MisRate:0.00%    MPKI:0.00
PC:109c6     Total:90      MisBP:0   MisRate:0.00%    MPKI:0.00
PC:30e6c     Total:57      MisBP:0   MisRate:0.00%    MPKI:0.00
PC:1525a     Total:693015      MisBP:0   MisRate:0.00%    MPKI:0.00
PC:2d50c     Total:82      MisBP:0   MisRate:0.00%    MPKI:0.00
PC:3311e     Total:51      MisBP:0   MisRate:0.00%    MPKI:0.00
PC:15150     Total:333588      MisBP:0   MisRate:0.00%    MPKI:0.00
PC:2d732     Total:16      MisBP:0   MisRate:0.00%    MPKI:0.00
PC:109ca     Total:63      MisBP:0   MisRate:0.00%    MPKI:0.00
PC:30e70     Total:57      MisBP:0   MisRate:0.00%    MPKI:0.00
PC:109b6     Total:107      MisBP:0   MisRate:0.00%    MPKI:0.00
PC:2d71a     Total:82      MisBP:0   MisRate:0.00%    MPKI:0.00
PC:15468     Total:127      MisBP:0   MisRate:0.00%    MPKI:0.00
PC:2c4b0     Total:2      MisBP:0   MisRate:0.00%    MPKI:0.00
PC:15244     Total:5608164      MisBP:0   MisRate:0.00%    MPKI:0.00
PC:2d71c     Total:82      MisBP:0   MisRate:0.00%    MPKI:0.00
PC:30e5a     Total:59      MisBP:0   MisRate:0.00%    MPKI:0.00
PC:2c4b2     Total:2      MisBP:0   MisRate:0.00%    MPKI:0.00
PC:2d3ee     Total:2      MisBP:0   MisRate:0.00%    MPKI:0.00
PC:1546c     Total:127      MisBP:0   MisRate:0.00%    MPKI:0.00
PC:2d568     Total:223      MisBP:0   MisRate:0.00%    MPKI:0.00
PC:30e5c     Total:58      MisBP:0   MisRate:0.00%    MPKI:0.00
PC:2c4b4     Total:2      MisBP:0   MisRate:0.00%    MPKI:0.00
PC:2d722     Total:81      MisBP:0   MisRate:0.00%    MPKI:0.00
PC:15470     Total:134      MisBP:0   MisRate:0.00%    MPKI:0.00
PC:109ba     Total:99      MisBP:0   MisRate:0.00%    MPKI:0.00
PC:30e60     Total:57      MisBP:0   MisRate:0.00%    MPKI:0.00
PC:1524c     Total:701712      MisBP:0   MisRate:0.00%    MPKI:0.00
PC:15142     Total:333663      MisBP:0   MisRate:0.00%    MPKI:0.00
PC:2c4ba     Total:2      MisBP:0   MisRate:0.00%    MPKI:0.00
PC:30e4a     Total:61      MisBP:0   MisRate:0.00%    MPKI:0.00
PC:152f8     Total:81      MisBP:0   MisRate:0.00%    MPKI:0.00
PC:2d542     Total:178      MisBP:0   MisRate:0.00%    MPKI:0.00
PC:2d552     Total:178      MisBP:0   MisRate:0.00%    MPKI:0.00
PC:26ea6     Total:4      MisBP:0   MisRate:0.00%    MPKI:0.00
PC:108f8     Total:137      MisBP:0   MisRate:0.00%    MPKI:0.00
PC:30e86     Total:46      MisBP:0   MisRate:0.00%    MPKI:0.00
PC:109e0     Total:33      MisBP:0   MisRate:0.00%    MPKI:0.00
PC:2d70c     Total:81      MisBP:0   MisRate:0.00%    MPKI:0.00
PC:1545a     Total:71      MisBP:0   MisRate:0.00%    MPKI:0.00
PC:109a4     Total:110      MisBP:0   MisRate:0.00%    MPKI:0.00
PC:3f696     Total:12      MisBP:0   MisRate:0.00%    MPKI:0.00
PC:2d712     Total:83      MisBP:0   MisRate:0.00%    MPKI:0.00
PC:15460     Total:70      MisBP:0   MisRate:0.00%    MPKI:0.00
PC:10f7e     Total:1      MisBP:0   MisRate:0.00%    MPKI:0.00
PC:2c4a8     Total:2      MisBP:0   MisRate:0.00%    MPKI:0.00
PC:2d720     Total:81      MisBP:0   MisRate:0.00%    MPKI:0.00
PC:2c4b6     Total:2      MisBP:0   MisRate:0.00%    MPKI:0.00
PC:2d72c     Total:16      MisBP:0   MisRate:0.00%    MPKI:0.00
PC:15152     Total:333585      MisBP:0   MisRate:0.00%    MPKI:0.00
PC:2d734     Total:16      MisBP:0   MisRate:0.00%    MPKI:0.00
PC:1093e     Total:152      MisBP:0   MisRate:0.00%    MPKI:0.00
PC:4f434     Total:4      MisBP:0   MisRate:0.00%    MPKI:0.00
PC:2ef8e     Total:93      MisBP:0   MisRate:0.00%    MPKI:0.00
PC:2caba     Total:22      MisBP:0   MisRate:0.00%    MPKI:0.00
PC:26ea8     Total:14      MisBP:0   MisRate:0.00%    MPKI:0.00
PC:14824     Total:404      MisBP:0   MisRate:0.00%    MPKI:0.00
PC:2d590     Total:117      MisBP:0   MisRate:0.00%    MPKI:0.00
PC:3f67c     Total:13      MisBP:0   MisRate:0.00%    MPKI:0.00
PC:152de     Total:89      MisBP:0   MisRate:0.00%    MPKI:0.00
PC:2d598     Total:106      MisBP:0   MisRate:0.00%    MPKI:0.00
PC:15482     Total:74      MisBP:0   MisRate:0.00%    MPKI:0.00
PC:152e6     Total:81      MisBP:0   MisRate:0.00%    MPKI:0.00
PC:2efa4     Total:92      MisBP:0   MisRate:0.00%    MPKI:0.00
PC:3f692     Total:12      MisBP:0   MisRate:0.00%    MPKI:0.00
PC:152f4     Total:81      MisBP:0   MisRate:0.00%    MPKI:0.00
PC:2efa8     Total:92      MisBP:0   MisRate:0.00%    MPKI:0.00
PC:115aa     Total:21133      MisBP:0   MisRate:0.00%    MPKI:0.00
PC:2cad4     Total:21      MisBP:0   MisRate:0.00%    MPKI:0.00
PC:30ea8     Total:34      MisBP:0   MisRate:0.00%    MPKI:0.00
PC:35e24     Total:42      MisBP:0   MisRate:0.00%    MPKI:0.00
PC:2cdba     Total:1      MisBP:0   MisRate:0.00%    MPKI:0.00
PC:26e94     Total:26      MisBP:0   MisRate:0.00%    MPKI:0.00
PC:11588     Total:23958      MisBP:0   MisRate:0.00%    MPKI:0.00
PC:2cab2     Total:22      MisBP:0   MisRate:0.00%    MPKI:0.00
PC:108f2     Total:81      MisBP:0   MisRate:0.00%    MPKI:0.00
PC:26ea0     Total:18      MisBP:0   MisRate:0.00%    MPKI:0.00
PC:2cdac     Total:59      MisBP:0   MisRate:0.00%    MPKI:0.00
PC:2bb42     Total:35      MisBP:0   MisRate:0.00%    MPKI:0.00
PC:2cdb0     Total:59      MisBP:0   MisRate:0.00%    MPKI:0.00
PC:2cdb4     Total:57      MisBP:0   MisRate:0.00%    MPKI:0.00
PC:2cdb8     Total:57      MisBP:0   MisRate:0.00%    MPKI:0.00
PC:2caa6     Total:22      MisBP:0   MisRate:0.00%    MPKI:0.00
PC:2cdbe     Total:1      MisBP:0   MisRate:0.00%    MPKI:0.00
PC:11598     Total:10914      MisBP:0   MisRate:0.00%    MPKI:0.00
PC:2cac2     Total:21      MisBP:0   MisRate:0.00%    MPKI:0.00
PC:10902     Total:133      MisBP:0   MisRate:0.00%    MPKI:0.00
PC:26eb0     Total:1      MisBP:0   MisRate:0.00%    MPKI:0.00
PC:2cac8     Total:21      MisBP:0   MisRate:0.00%    MPKI:0.00
PC:2d582     Total:209      MisBP:0   MisRate:0.00%    MPKI:0.00
PC:14816     Total:412      MisBP:0   MisRate:0.00%    MPKI:0.00
PC:26eb6     Total:25      MisBP:0   MisRate:0.00%    MPKI:0.00
PC:2d74a     Total:21      MisBP:0   MisRate:0.00%    MPKI:0.00
PC:2d73a     Total:16      MisBP:0   MisRate:0.00%    MPKI:0.00
PC:1515e     Total:12401680      MisBP:0   MisRate:0.00%    MPKI:0.00
PC:2d740     Total:16      MisBP:0   MisRate:0.00%    MPKI:0.00
PC:1548e     Total:42      MisBP:0   MisRate:0.00%    MPKI:0.00
PC:109d8     Total:33      MisBP:0   MisRate:0.00%    MPKI:0.00
PC:30e7e     Total:49      MisBP:0   MisRate:0.00%    MPKI:0.00
PC:15164     Total:12399451      MisBP:0   MisRate:0.00%    MPKI:0.00
PC:2d746     Total:21      MisBP:0   MisRate:0.00%    MPKI:0.00
PC:15168     Total:12398733      MisBP:0   MisRate:0.00%    MPKI:0.00
PC:10930     Total:160      MisBP:0   MisRate:0.00%    MPKI:0.00
PC:15498     Total:42      MisBP:0   MisRate:0.00%    MPKI:0.00
PC:11574     Total:86      MisBP:0   MisRate:0.00%    MPKI:0.00
PC:2ca9e     Total:79      MisBP:0   MisRate:0.00%    MPKI:0.00
PC:26e8c     Total:52      MisBP:0   MisRate:0.00%    MPKI:0.00
PC:11578     Total:86      MisBP:0   MisRate:0.00%    MPKI:0.00
PC:2d55c     Total:260      MisBP:0   MisRate:0.00%    MPKI:0.00
PC:147f0     Total:459      MisBP:0   MisRate:0.00%    MPKI:0.00
PC:26e90     Total:26      MisBP:0   MisRate:0.00%    MPKI:0.00
PC:1157c     Total:25003      MisBP:0   MisRate:0.00%    MPKI:0.00
PC:2d394     Total:41      MisBP:0   MisRate:0.00%    MPKI:0.00
PC:108fc     Total:137      MisBP:0   MisRate:0.00%    MPKI:0.00
PC:26eaa     Total:14      MisBP:0   MisRate:0.00%    MPKI:0.00
PC:2d634     Total:88      MisBP:0   MisRate:0.00%    MPKI:0.00
PC:2d59c     Total:106      MisBP:0   MisRate:0.00%    MPKI:0.00
PC:10942     Total:152      MisBP:0   MisRate:0.00%    MPKI:0.00
PC:152ea     Total:81      MisBP:0   MisRate:0.00%    MPKI:0.00
PC:4f440     Total:2      MisBP:0   MisRate:0.00%    MPKI:0.00
PC:2ef9a     Total:92      MisBP:0   MisRate:0.00%    MPKI:0.00
PC:30e8a     Total:46      MisBP:0   MisRate:0.00%    MPKI:0.00
PC:109e4     Total:33      MisBP:0   MisRate:0.00%    MPKI:0.00
PC:1480a     Total:412      MisBP:0   MisRate:0.00%    MPKI:0.00
PC:2d398     Total:410      MisBP:0   MisRate:0.00%    MPKI:0.00
PC:2d39e     Total:41      MisBP:0   MisRate:0.00%    MPKI:0.00
PC:2d3a2     Total:41      MisBP:0   MisRate:0.00%    MPKI:0.00
PC:2d3a6     Total:41      MisBP:0   MisRate:0.00%    MPKI:0.00
PC:2d3b4     Total:41      MisBP:0   MisRate:0.00%    MPKI:0.00
PC:2d3b8     Total:41      MisBP:0   MisRate:0.00%    MPKI:0.00
PC:2d3c8     Total:1      MisBP:0   MisRate:0.00%    MPKI:0.00
PC:2d3d2     Total:1      MisBP:0   MisRate:0.00%    MPKI:0.00
PC:2d3e8     Total:2      MisBP:0   MisRate:0.00%    MPKI:0.00
PC:2ef8c     Total:93      MisBP:0   MisRate:0.00%    MPKI:0.00
PC:147fc     Total:442      MisBP:0   MisRate:0.00%    MPKI:0.00
PC:108ee     Total:81      MisBP:0   MisRate:0.00%    MPKI:0.00
PC:26e9c     Total:5      MisBP:0   MisRate:0.00%    MPKI:0.00
PC:2d626     Total:579      MisBP:0   MisRate:0.00%    MPKI:0.00
PC:109cc     Total:63      MisBP:0   MisRate:0.00%    MPKI:0.00
PC:2d62c     Total:88      MisBP:0   MisRate:0.00%    MPKI:0.00
PC:10934     Total:160      MisBP:0   MisRate:0.00%    MPKI:0.00
PC:3f67a     Total:13      MisBP:0   MisRate:0.00%    MPKI:0.00
PC:152dc     Total:89      MisBP:0   MisRate:0.00%    MPKI:0.00
PC:2d4a8     Total:42      MisBP:0   MisRate:0.00%    MPKI:0.00
PC:1158e     Total:23954      MisBP:0   MisRate:0.00%    MPKI:0.00
PC:2cab8     Total:22      MisBP:0   MisRate:0.00%    MPKI:0.00
PC:2d572     Total:215      MisBP:0   MisRate:0.00%    MPKI:0.00
PC:14806     Total:425      MisBP:0   MisRate:0.00%    MPKI:0.00
PC:2d630     Total:88      MisBP:0   MisRate:0.00%    MPKI:0.00
PC:4f436     Total:4      MisBP:0   MisRate:0.00%    MPKI:0.00
PC:2ef90     Total:93      MisBP:0   MisRate:0.00%    MPKI:0.00
PC:2cabc     Total:22      MisBP:0   MisRate:0.00%    MPKI:0.00
PC:2d576     Total:215      MisBP:0   MisRate:0.00%    MPKI:0.00
PC:147e8     Total:417      MisBP:0   MisRate:0.00%    MPKI:0.00
PC:2f438     Total:907      MisBP:0   MisRate:0.00%    MPKI:0.00
PC:11750     Total:17556      MisBP:0   MisRate:0.00%    MPKI:0.00
PC:2cc7a     Total:1      MisBP:0   MisRate:0.00%    MPKI:0.00
PC:2ef22     Total:52      MisBP:0   MisRate:0.00%    MPKI:0.00
PC:26e3c     Total:140      MisBP:0   MisRate:0.00%    MPKI:0.00
PC:2dcb8     Total:10      MisBP:0   MisRate:0.00%    MPKI:0.00
PC:2d524     Total:82      MisBP:0   MisRate:0.00%    MPKI:0.00
PC:2ef6e     Total:102      MisBP:0   MisRate:0.00%    MPKI:0.00
PC:2ca9a     Total:79      MisBP:0   MisRate:0.00%    MPKI:0.00
PC:2d554     Total:178      MisBP:0   MisRate:0.00%    MPKI:0.00
PC:2d520     Total:82      MisBP:0   MisRate:0.00%    MPKI:0.00
PC:26e88     Total:1      MisBP:0   MisRate:0.00%    MPKI:0.00
PC:2d570     Total:215      MisBP:0   MisRate:0.00%    MPKI:0.00
PC:10916     Total:92      MisBP:0   MisRate:0.00%    MPKI:0.00
PC:2d578     Total:211      MisBP:0   MisRate:0.00%    MPKI:0.00
PC:1091e     Total:92      MisBP:0   MisRate:0.00%    MPKI:0.00
PC:4f42e     Total:4      MisBP:0   MisRate:0.00%    MPKI:0.00
PC:2ef88     Total:94      MisBP:0   MisRate:0.00%    MPKI:0.00
PC:14802     Total:426      MisBP:0   MisRate:0.00%    MPKI:0.00
PC:2d58a     Total:209      MisBP:0   MisRate:0.00%    MPKI:0.00
PC:2cc48     Total:57      MisBP:0   MisRate:0.00%    MPKI:0.00
PC:2d4ae     Total:11      MisBP:0   MisRate:0.00%    MPKI:0.00
PC:2d4b6     Total:10      MisBP:0   MisRate:0.00%    MPKI:0.00
PC:2d4ba     Total:10      MisBP:0   MisRate:0.00%    MPKI:0.00
PC:2d4c2     Total:41      MisBP:0   MisRate:0.00%    MPKI:0.00
PC:2d4cc     Total:7      MisBP:0   MisRate:0.00%    MPKI:0.00
PC:2d4d8     Total:46      MisBP:0   MisRate:0.00%    MPKI:0.00
PC:330ea     Total:62      MisBP:0   MisRate:0.00%    MPKI:0.00
PC:2d4ec     Total:46      MisBP:0   MisRate:0.00%    MPKI:0.00
PC:1171e     Total:5708      MisBP:0   MisRate:0.00%    MPKI:0.00
PC:11dba     Total:95      MisBP:0   MisRate:0.00%    MPKI:0.00
PC:1172e     Total:5626      MisBP:0   MisRate:0.00%    MPKI:0.00
PC:2cc58     Total:56      MisBP:0   MisRate:0.00%    MPKI:0.00
PC:11732     Total:12841      MisBP:0   MisRate:0.00%    MPKI:0.00
PC:2cc5c     Total:56      MisBP:0   MisRate:0.00%    MPKI:0.00
PC:2d506     Total:82      MisBP:0   MisRate:0.00%    MPKI:0.00
PC:1173c     Total:8659      MisBP:0   MisRate:0.00%    MPKI:0.00
PC:2cc66     Total:56      MisBP:0   MisRate:0.00%    MPKI:0.00
PC:2d514     Total:82      MisBP:0   MisRate:0.00%    MPKI:0.00
PC:33126     Total:1      MisBP:0   MisRate:0.00%    MPKI:0.00
PC:2e0d2     Total:1      MisBP:0   MisRate:0.00%    MPKI:0.00
PC:1535a     Total:36182      MisBP:0   MisRate:0.00%    MPKI:0.00
PC:2e0c6     Total:40      MisBP:0   MisRate:0.00%    MPKI:0.00
PC:1535e     Total:36174      MisBP:0   MisRate:0.00%    MPKI:0.00
PC:2e0ca     Total:40      MisBP:0   MisRate:0.00%    MPKI:0.00
PC:15360     Total:36173      MisBP:0   MisRate:0.00%    MPKI:0.00
PC:2e0cc     Total:40      MisBP:0   MisRate:0.00%    MPKI:0.00
PC:2e0ce     Total:1      MisBP:0   MisRate:0.00%    MPKI:0.00
PC:15364     Total:34349      MisBP:0   MisRate:0.00%    MPKI:0.00
PC:2e0d0     Total:1      MisBP:0   MisRate:0.00%    MPKI:0.00
PC:15366     Total:34347      MisBP:0   MisRate:0.00%    MPKI:0.00
PC:2e0c4     Total:40      MisBP:0   MisRate:0.00%    MPKI:0.00
PC:15368     Total:34341      MisBP:0   MisRate:0.00%    MPKI:0.00
PC:2e0d4     Total:1      MisBP:0   MisRate:0.00%    MPKI:0.00
PC:1536c     Total:1099      MisBP:0   MisRate:0.00%    MPKI:0.00
PC:2e0d8     Total:1      MisBP:0   MisRate:0.00%    MPKI:0.00
PC:2e0da     Total:1      MisBP:0   MisRate:0.00%    MPKI:0.00
PC:2e0dc     Total:1      MisBP:0   MisRate:0.00%    MPKI:0.00
PC:2e0de     Total:1      MisBP:0   MisRate:0.00%    MPKI:0.00
PC:2e0e2     Total:1      MisBP:0   MisRate:0.00%    MPKI:0.00
PC:2e0e4     Total:1      MisBP:0   MisRate:0.00%    MPKI:0.00
PC:2e0b6     Total:41      MisBP:0   MisRate:0.00%    MPKI:0.00
PC:15344     Total:66402      MisBP:0   MisRate:0.00%    MPKI:0.00
PC:2e0b0     Total:39      MisBP:0   MisRate:0.00%    MPKI:0.00
PC:3f6e4     Total:2      MisBP:0   MisRate:0.00%    MPKI:0.00
PC:15346     Total:66389      MisBP:0   MisRate:0.00%    MPKI:0.00
PC:2e0b2     Total:39      MisBP:0   MisRate:0.00%    MPKI:0.00
PC:3f6e6     Total:2      MisBP:0   MisRate:0.00%    MPKI:0.00
PC:15348     Total:66373      MisBP:0   MisRate:0.00%    MPKI:0.00
PC:2e0b4     Total:39      MisBP:0   MisRate:0.00%    MPKI:0.00
PC:3f6e8     Total:2      MisBP:0   MisRate:0.00%    MPKI:0.00
PC:2e0e8     Total:1      MisBP:0   MisRate:0.00%    MPKI:0.00
PC:1534c     Total:66349      MisBP:0   MisRate:0.00%    MPKI:0.00
PC:2e0b8     Total:41      MisBP:0   MisRate:0.00%    MPKI:0.00
PC:3f6ec     Total:1      MisBP:0   MisRate:0.00%    MPKI:0.00
PC:1534e     Total:66323      MisBP:0   MisRate:0.00%    MPKI:0.00
PC:2e0ba     Total:41      MisBP:0   MisRate:0.00%    MPKI:0.00
PC:3f6f0     Total:1      MisBP:0   MisRate:0.00%    MPKI:0.00
PC:2e0be     Total:41      MisBP:0   MisRate:0.00%    MPKI:0.00
PC:3f6f2     Total:1      MisBP:0   MisRate:0.00%    MPKI:0.00
PC:2e0c0     Total:41      MisBP:0   MisRate:0.00%    MPKI:0.00
PC:2c918     Total:2      MisBP:0   MisRate:0.00%    MPKI:0.00
PC:2c8fe     Total:4      MisBP:0   MisRate:0.00%    MPKI:0.00
PC:2c900     Total:2      MisBP:0   MisRate:0.00%    MPKI:0.00
PC:2c904     Total:2      MisBP:0   MisRate:0.00%    MPKI:0.00
PC:2c906     Total:2      MisBP:0   MisRate:0.00%    MPKI:0.00
PC:2c908     Total:2      MisBP:0   MisRate:0.00%    MPKI:0.00
PC:2c90a     Total:2      MisBP:0   MisRate:0.00%    MPKI:0.00
PC:2c90c     Total:2      MisBP:0   MisRate:0.00%    MPKI:0.00
PC:2c90e     Total:2      MisBP:0   MisRate:0.00%    MPKI:0.00
PC:2c910     Total:2      MisBP:0   MisRate:0.00%    MPKI:0.00
PC:2c914     Total:2      MisBP:0   MisRate:0.00%    MPKI:0.00
PC:2c8fa     Total:4      MisBP:0   MisRate:0.00%    MPKI:0.00
PC:2c91a     Total:2      MisBP:0   MisRate:0.00%    MPKI:0.00
PC:2c91c     Total:2      MisBP:0   MisRate:0.00%    MPKI:0.00
PC:2c91e     Total:2      MisBP:0   MisRate:0.00%    MPKI:0.00
PC:2c922     Total:2      MisBP:0   MisRate:0.00%    MPKI:0.00
PC:2c926     Total:2      MisBP:0   MisRate:0.00%    MPKI:0.00
PC:2c928     Total:2      MisBP:0   MisRate:0.00%    MPKI:0.00
PC:2c92e     Total:2      MisBP:0   MisRate:0.00%    MPKI:0.00
PC:2c932     Total:2      MisBP:0   MisRate:0.00%    MPKI:0.00
PC:2c93c     Total:2      MisBP:0   MisRate:0.00%    MPKI:0.00
PC:2c8de     Total:6      MisBP:0   MisRate:0.00%    MPKI:0.00
PC:2c8c0     Total:6      MisBP:0   MisRate:0.00%    MPKI:0.00
PC:2c8c4     Total:6      MisBP:0   MisRate:0.00%    MPKI:0.00
PC:2c8c6     Total:6      MisBP:0   MisRate:0.00%    MPKI:0.00
PC:2c8ca     Total:6      MisBP:0   MisRate:0.00%    MPKI:0.00
PC:2c8ce     Total:6      MisBP:0   MisRate:0.00%    MPKI:0.00
PC:2c8d2     Total:6      MisBP:0   MisRate:0.00%    MPKI:0.00
PC:2c8d4     Total:6      MisBP:0   MisRate:0.00%    MPKI:0.00
PC:2c8d8     Total:6      MisBP:0   MisRate:0.00%    MPKI:0.00
PC:2c8da     Total:6      MisBP:0   MisRate:0.00%    MPKI:0.00
PC:3f6e2     Total:2      MisBP:0   MisRate:0.00%    MPKI:0.00
PC:2c8e0     Total:6      MisBP:0   MisRate:0.00%    MPKI:0.00
PC:2c8e4     Total:6      MisBP:0   MisRate:0.00%    MPKI:0.00
PC:2c8e6     Total:6      MisBP:0   MisRate:0.00%    MPKI:0.00
PC:2c8e8     Total:6      MisBP:0   MisRate:0.00%    MPKI:0.00
PC:2c8ec     Total:6      MisBP:0   MisRate:0.00%    MPKI:0.00
PC:2c8ee     Total:6      MisBP:0   MisRate:0.00%    MPKI:0.00
PC:2c8f2     Total:4      MisBP:0   MisRate:0.00%    MPKI:0.00
PC:2c8f4     Total:4      MisBP:0   MisRate:0.00%    MPKI:0.00
PC:2c8f6     Total:4      MisBP:0   MisRate:0.00%    MPKI:0.00
PC:2bb72     Total:35      MisBP:0   MisRate:0.00%    MPKI:0.00
PC:155b4     Total:693      MisBP:0   MisRate:0.00%    MPKI:0.00
PC:2bb62     Total:35      MisBP:0   MisRate:0.00%    MPKI:0.00
PC:2bb64     Total:35      MisBP:0   MisRate:0.00%    MPKI:0.00
PC:2cdce     Total:5      MisBP:0   MisRate:0.00%    MPKI:0.00
PC:2bb68     Total:35      MisBP:0   MisRate:0.00%    MPKI:0.00
PC:2cdd2     Total:5      MisBP:0   MisRate:0.00%    MPKI:0.00
PC:2bb6c     Total:35      MisBP:0   MisRate:0.00%    MPKI:0.00
PC:155c2     Total:5      MisBP:0   MisRate:0.00%    MPKI:0.00
PC:2bb70     Total:35      MisBP:0   MisRate:0.00%    MPKI:0.00
PC:155c4     Total:5      MisBP:0   MisRate:0.00%    MPKI:0.00
PC:2bb60     Total:35      MisBP:0   MisRate:0.00%    MPKI:0.00
PC:2cddc     Total:3      MisBP:0   MisRate:0.00%    MPKI:0.00
PC:2bb74     Total:35      MisBP:0   MisRate:0.00%    MPKI:0.00
PC:2cdde     Total:3      MisBP:0   MisRate:0.00%    MPKI:0.00
PC:155ca     Total:5      MisBP:0   MisRate:0.00%    MPKI:0.00
PC:2bb78     Total:35      MisBP:0   MisRate:0.00%    MPKI:0.00
PC:2cde2     Total:3      MisBP:0   MisRate:0.00%    MPKI:0.00
PC:2bb7a     Total:35      MisBP:0   MisRate:0.00%    MPKI:0.00
PC:2bb7e     Total:35      MisBP:0   MisRate:0.00%    MPKI:0.00
PC:2cde8     Total:3      MisBP:0   MisRate:0.00%    MPKI:0.00
PC:1559e     Total:87      MisBP:0   MisRate:0.00%    MPKI:0.00
PC:15548     Total:85      MisBP:0   MisRate:0.00%    MPKI:0.00
PC:1554c     Total:85      MisBP:0   MisRate:0.00%    MPKI:0.00
PC:1554e     Total:85      MisBP:0   MisRate:0.00%    MPKI:0.00
PC:1558e     Total:185      MisBP:0   MisRate:0.00%    MPKI:0.00
PC:2bb3c     Total:36      MisBP:0   MisRate:0.00%    MPKI:0.00
PC:15592     Total:184      MisBP:0   MisRate:0.00%    MPKI:0.00
PC:2bb40     Total:105      MisBP:0   MisRate:0.00%    MPKI:0.00
PC:1559a     Total:1365      MisBP:0   MisRate:0.00%    MPKI:0.00
PC:2bb48     Total:35      MisBP:0   MisRate:0.00%    MPKI:0.00
PC:155d2     Total:5      MisBP:0   MisRate:0.00%    MPKI:0.00
PC:2bb4c     Total:35      MisBP:0   MisRate:0.00%    MPKI:0.00
PC:2bb52     Total:35      MisBP:0   MisRate:0.00%    MPKI:0.00
PC:155a8     Total:106      MisBP:0   MisRate:0.00%    MPKI:0.00
PC:2bb56     Total:35      MisBP:0   MisRate:0.00%    MPKI:0.00
PC:155ac     Total:106      MisBP:0   MisRate:0.00%    MPKI:0.00
PC:2bb5a     Total:35      MisBP:0   MisRate:0.00%    MPKI:0.00
PC:155b0     Total:106      MisBP:0   MisRate:0.00%    MPKI:0.00
PC:2bb5e     Total:35      MisBP:0   MisRate:0.00%    MPKI:0.00
PC:155b2     Total:105      MisBP:0   MisRate:0.00%    MPKI:0.00
PC:10a1c     Total:28      MisBP:0   MisRate:0.00%    MPKI:0.00
PC:2bb9a     Total:2      MisBP:0   MisRate:0.00%    MPKI:0.00
PC:155ee     Total:9      MisBP:0   MisRate:0.00%    MPKI:0.00
PC:2bb9c     Total:2      MisBP:0   MisRate:0.00%    MPKI:0.00
PC:155f0     Total:9      MisBP:0   MisRate:0.00%    MPKI:0.00
PC:2bb9e     Total:1      MisBP:0   MisRate:0.00%    MPKI:0.00
PC:2bba0     Total:1      MisBP:0   MisRate:0.00%    MPKI:0.00
PC:2bba4     Total:4      MisBP:0   MisRate:0.00%    MPKI:0.00
PC:26e70     Total:31      MisBP:0   MisRate:0.00%    MPKI:0.00
PC:2dcec     Total:1      MisBP:0   MisRate:0.00%    MPKI:0.00
PC:2d676     Total:7      MisBP:0   MisRate:0.00%    MPKI:0.00
PC:155ec     Total:1      MisBP:0   MisRate:0.00%    MPKI:0.00
PC:3f6d8     Total:2      MisBP:0   MisRate:0.00%    MPKI:0.00
PC:2e0a6     Total:40      MisBP:0   MisRate:0.00%    MPKI:0.00
PC:3f6da     Total:2      MisBP:0   MisRate:0.00%    MPKI:0.00
PC:1533c     Total:38046      MisBP:0   MisRate:0.00%    MPKI:0.00
PC:2e0a8     Total:39      MisBP:0   MisRate:0.00%    MPKI:0.00
PC:1533e     Total:38039      MisBP:0   MisRate:0.00%    MPKI:0.00
PC:2e0aa     Total:39      MisBP:0   MisRate:0.00%    MPKI:0.00
PC:3f6e0     Total:2      MisBP:0   MisRate:0.00%    MPKI:0.00
PC:2e0ae     Total:39      MisBP:0   MisRate:0.00%    MPKI:0.00
PC:2cdf2     Total:3      MisBP:0   MisRate:0.00%    MPKI:0.00
PC:2bb80     Total:35      MisBP:0   MisRate:0.00%    MPKI:0.00
PC:2cdea     Total:3      MisBP:0   MisRate:0.00%    MPKI:0.00
PC:155d4     Total:5      MisBP:0   MisRate:0.00%    MPKI:0.00
PC:2bb82     Total:35      MisBP:0   MisRate:0.00%    MPKI:0.00
PC:155d6     Total:35      MisBP:0   MisRate:0.00%    MPKI:0.00
PC:2bb84     Total:35      MisBP:0   MisRate:0.00%    MPKI:0.00
PC:2cdee     Total:3      MisBP:0   MisRate:0.00%    MPKI:0.00
PC:155da     Total:39      MisBP:0   MisRate:0.00%    MPKI:0.00
PC:2bb88     Total:2      MisBP:0   MisRate:0.00%    MPKI:0.00
PC:10a08     Total:30      MisBP:0   MisRate:0.00%    MPKI:0.00
PC:2bb8c     Total:2      MisBP:0   MisRate:0.00%    MPKI:0.00
PC:2cdf6     Total:3      MisBP:0   MisRate:0.00%    MPKI:0.00
PC:155e2     Total:1      MisBP:0   MisRate:0.00%    MPKI:0.00
PC:2bb90     Total:2      MisBP:0   MisRate:0.00%    MPKI:0.00
PC:155e4     Total:1      MisBP:0   MisRate:0.00%    MPKI:0.00
PC:2bb92     Total:2      MisBP:0   MisRate:0.00%    MPKI:0.00
PC:2cdfc     Total:3      MisBP:0   MisRate:0.00%    MPKI:0.00
PC:155e8     Total:1      MisBP:0   MisRate:0.00%    MPKI:0.00
PC:2bb96     Total:2      MisBP:0   MisRate:0.00%    MPKI:0.00
PC:2cd5c     Total:25      MisBP:0   MisRate:0.00%    MPKI:0.00
PC:4aa34     Total:1      MisBP:0   MisRate:0.00%    MPKI:0.00
PC:22e54     Total:22      MisBP:0   MisRate:0.00%    MPKI:0.00
PC:31cc8     Total:5      MisBP:0   MisRate:0.00%    MPKI:0.00
PC:4aa38     Total:1      MisBP:0   MisRate:0.00%    MPKI:0.00
PC:2cd50     Total:84      MisBP:0   MisRate:0.00%    MPKI:0.00
PC:31ccc     Total:5      MisBP:0   MisRate:0.00%    MPKI:0.00
PC:4aa3c     Total:1      MisBP:0   MisRate:0.00%    MPKI:0.00
PC:31cd0     Total:15      MisBP:0   MisRate:0.00%    MPKI:0.00
PC:2cd58     Total:25      MisBP:0   MisRate:0.00%    MPKI:0.00
PC:31cd4     Total:5      MisBP:0   MisRate:0.00%    MPKI:0.00
PC:31cc4     Total:5      MisBP:0   MisRate:0.00%    MPKI:0.00
PC:31cd8     Total:15      MisBP:0   MisRate:0.00%    MPKI:0.00
PC:2cd60     Total:25      MisBP:0   MisRate:0.00%    MPKI:0.00
PC:31cdc     Total:5      MisBP:0   MisRate:0.00%    MPKI:0.00
PC:2cd64     Total:25      MisBP:0   MisRate:0.00%    MPKI:0.00
PC:31ce0     Total:15      MisBP:0   MisRate:0.00%    MPKI:0.00
PC:2cd68     Total:22      MisBP:0   MisRate:0.00%    MPKI:0.00
PC:31ce4     Total:5      MisBP:0   MisRate:0.00%    MPKI:0.00
PC:2cd6c     Total:22      MisBP:0   MisRate:0.00%    MPKI:0.00
PC:31ce8     Total:12      MisBP:0   MisRate:0.00%    MPKI:0.00
PC:2d6aa     Total:5      MisBP:0   MisRate:0.00%    MPKI:0.00
PC:2c498     Total:2      MisBP:0   MisRate:0.00%    MPKI:0.00
PC:2d890     Total:4      MisBP:0   MisRate:0.00%    MPKI:0.00
PC:2d8a8     Total:4      MisBP:0   MisRate:0.00%    MPKI:0.00
PC:2d68c     Total:5      MisBP:0   MisRate:0.00%    MPKI:0.00
PC:2d694     Total:5      MisBP:0   MisRate:0.00%    MPKI:0.00
PC:2d698     Total:5      MisBP:0   MisRate:0.00%    MPKI:0.00
PC:2d69c     Total:5      MisBP:0   MisRate:0.00%    MPKI:0.00
PC:2d6a0     Total:5      MisBP:0   MisRate:0.00%    MPKI:0.00
PC:2d6a6     Total:5      MisBP:0   MisRate:0.00%    MPKI:0.00
PC:2cd70     Total:22      MisBP:0   MisRate:0.00%    MPKI:0.00
PC:2d6ae     Total:5      MisBP:0   MisRate:0.00%    MPKI:0.00
PC:2d6b4     Total:5      MisBP:0   MisRate:0.00%    MPKI:0.00
PC:2d6b8     Total:5      MisBP:0   MisRate:0.00%    MPKI:0.00
PC:109ce     Total:63      MisBP:0   MisRate:0.00%    MPKI:0.00
PC:30e74     Total:57      MisBP:0   MisRate:0.00%    MPKI:0.00
PC:4aa2c     Total:1      MisBP:0   MisRate:0.00%    MPKI:0.00
PC:31cc0     Total:5      MisBP:0   MisRate:0.00%    MPKI:0.00
PC:4aa30     Total:1      MisBP:0   MisRate:0.00%    MPKI:0.00
PC:22e50     Total:66      MisBP:0   MisRate:0.00%    MPKI:0.00
PC:1160c     Total:24089      MisBP:0   MisRate:0.00%    MPKI:0.00
PC:10f7a     Total:1      MisBP:0   MisRate:0.00%    MPKI:0.00
PC:2c4a4     Total:2      MisBP:0   MisRate:0.00%    MPKI:0.00
PC:2dc64     Total:3      MisBP:0   MisRate:0.00%    MPKI:0.00
PC:2dc6c     Total:3      MisBP:0   MisRate:0.00%    MPKI:0.00
PC:108fe     Total:133      MisBP:0   MisRate:0.00%    MPKI:0.00
PC:26eac     Total:14      MisBP:0   MisRate:0.00%    MPKI:0.00
PC:11604     Total:27130      MisBP:0   MisRate:0.00%    MPKI:0.00
PC:2cb2e     Total:7      MisBP:0   MisRate:0.00%    MPKI:0.00
PC:11608     Total:27103      MisBP:0   MisRate:0.00%    MPKI:0.00
PC:2cb32     Total:7      MisBP:0   MisRate:0.00%    MPKI:0.00
PC:2c4a0     Total:2      MisBP:0   MisRate:0.00%    MPKI:0.00
PC:2cb36     Total:7      MisBP:0   MisRate:0.00%    MPKI:0.00
PC:31d00     Total:4      MisBP:0   MisRate:0.00%    MPKI:0.00
PC:2cd88     Total:331      MisBP:0   MisRate:0.00%    MPKI:0.00
PC:31d04     Total:2      MisBP:0   MisRate:0.00%    MPKI:0.00
PC:31d08     Total:4      MisBP:0   MisRate:0.00%    MPKI:0.00
PC:31d0c     Total:2      MisBP:0   MisRate:0.00%    MPKI:0.00
PC:31d10     Total:4      MisBP:0   MisRate:0.00%    MPKI:0.00
PC:152e2     Total:89      MisBP:0   MisRate:0.00%    MPKI:0.00
PC:3f680     Total:12      MisBP:0   MisRate:0.00%    MPKI:0.00
PC:2cb1c     Total:13      MisBP:0   MisRate:0.00%    MPKI:0.00
PC:31cec     Total:4      MisBP:0   MisRate:0.00%    MPKI:0.00
PC:31cf0     Total:4      MisBP:0   MisRate:0.00%    MPKI:0.00
PC:31cf4     Total:4      MisBP:0   MisRate:0.00%    MPKI:0.00
PC:31cf8     Total:8      MisBP:0   MisRate:0.00%    MPKI:0.00
PC:2cd80     Total:29      MisBP:0   MisRate:0.00%    MPKI:0.00
PC:31cfc     Total:3      MisBP:0   MisRate:0.00%    MPKI:0.00
PC:115ee     Total:28821      MisBP:0   MisRate:0.00%    MPKI:0.00
PC:2cb18     Total:13      MisBP:0   MisRate:0.00%    MPKI:0.00
PC:115f2     Total:28547      MisBP:0   MisRate:0.00%    MPKI:0.00
PC:2cdfe     Total:3      MisBP:0   MisRate:0.00%    MPKI:0.00
PC:2cb24     Total:13      MisBP:0   MisRate:0.00%    MPKI:0.00
PC:109fa     Total:32      MisBP:0   MisRate:0.00%    MPKI:0.00
PC:30ea0     Total:34      MisBP:0   MisRate:0.00%    MPKI:0.00
PC:2c482     Total:2      MisBP:0   MisRate:0.00%    MPKI:0.00
PC:10f5c     Total:141      MisBP:0   MisRate:0.00%    MPKI:0.00
PC:2c486     Total:2      MisBP:0   MisRate:0.00%    MPKI:0.00
PC:10f72     Total:1      MisBP:0   MisRate:0.00%    MPKI:0.00
PC:2c49c     Total:2      MisBP:0   MisRate:0.00%    MPKI:0.00
PC:10f76     Total:1      MisBP:0   MisRate:0.00%    MPKI:0.00
PC:1095a     Total:111      MisBP:0   MisRate:0.00%    MPKI:0.00
PC:1560a     Total:1      MisBP:0   MisRate:0.00%    MPKI:0.00
PC:2d8bc     Total:15      MisBP:0   MisRate:0.00%    MPKI:0.00
PC:2d444     Total:9      MisBP:0   MisRate:0.00%    MPKI:0.00
PC:2d44c     Total:9      MisBP:0   MisRate:0.00%    MPKI:0.00
PC:2d454     Total:8      MisBP:0   MisRate:0.00%    MPKI:0.00
PC:2d45e     Total:8      MisBP:0   MisRate:0.00%    MPKI:0.00
PC:2d464     Total:8      MisBP:0   MisRate:0.00%    MPKI:0.00
PC:2d472     Total:8      MisBP:0   MisRate:0.00%    MPKI:0.00
PC:2d482     Total:1      MisBP:0   MisRate:0.00%    MPKI:0.00
PC:2d486     Total:1      MisBP:0   MisRate:0.00%    MPKI:0.00
PC:15608     Total:1      MisBP:0   MisRate:0.00%    MPKI:0.00
PC:30e00     Total:53      MisBP:0   MisRate:0.00%    MPKI:0.00
PC:1095e     Total:77      MisBP:0   MisRate:0.00%    MPKI:0.00
PC:30e04     Total:106      MisBP:0   MisRate:0.00%    MPKI:0.00
PC:10962     Total:77      MisBP:0   MisRate:0.00%    MPKI:0.00
PC:30e08     Total:53      MisBP:0   MisRate:0.00%    MPKI:0.00
PC:10966     Total:77      MisBP:0   MisRate:0.00%    MPKI:0.00
PC:30e0c     Total:53      MisBP:0   MisRate:0.00%    MPKI:0.00
PC:30e10     Total:53      MisBP:0   MisRate:0.00%    MPKI:0.00
PC:30e14     Total:53      MisBP:0   MisRate:0.00%    MPKI:0.00
PC:155c0     Total:22      MisBP:0   MisRate:0.00%    MPKI:0.00
PC:35e2a     Total:42      MisBP:0   MisRate:0.00%    MPKI:0.00
PC:10a14     Total:28      MisBP:0   MisRate:0.00%    MPKI:0.00
PC:35e36     Total:39      MisBP:0   MisRate:0.00%    MPKI:0.00
PC:30ea4     Total:68      MisBP:0   MisRate:0.00%    MPKI:0.00
PC:35e20     Total:42      MisBP:0   MisRate:0.00%    MPKI:0.00
PC:109fe     Total:31      MisBP:0   MisRate:0.00%    MPKI:0.00
PC:2bb66     Total:35      MisBP:0   MisRate:0.00%    MPKI:0.00
PC:155b8     Total:23      MisBP:0   MisRate:0.00%    MPKI:0.00
PC:2bb6a     Total:35      MisBP:0   MisRate:0.00%    MPKI:0.00
PC:10992     Total:73      MisBP:0   MisRate:0.00%    MPKI:0.00
PC:10a20     Total:28      MisBP:0   MisRate:0.00%    MPKI:0.00
PC:10a24     Total:28      MisBP:0   MisRate:0.00%    MPKI:0.00
PC:15600     Total:8      MisBP:0   MisRate:0.00%    MPKI:0.00
PC:2d8b2     Total:4      MisBP:0   MisRate:0.00%    MPKI:0.00
PC:2d8b4     Total:4      MisBP:0   MisRate:0.00%    MPKI:0.00
PC:15604     Total:8      MisBP:0   MisRate:0.00%    MPKI:0.00
PC:2d8b6     Total:15      MisBP:0   MisRate:0.00%    MPKI:0.00
PC:15606     Total:1      MisBP:0   MisRate:0.00%    MPKI:0.00
PC:2d8b8     Total:15      MisBP:0   MisRate:0.00%    MPKI:0.00
PC:115d8     Total:38711      MisBP:0   MisRate:0.00%    MPKI:0.00
PC:4aa20     Total:1      MisBP:0   MisRate:0.00%    MPKI:0.00
PC:31cb4     Total:8      MisBP:0   MisRate:0.00%    MPKI:0.00
PC:2cd3c     Total:92      MisBP:0   MisRate:0.00%    MPKI:0.00
PC:31cb8     Total:8      MisBP:0   MisRate:0.00%    MPKI:0.00
PC:4aa28     Total:1      MisBP:0   MisRate:0.00%    MPKI:0.00
PC:31cbc     Total:7      MisBP:0   MisRate:0.00%    MPKI:0.00
PC:2dcc8     Total:12      MisBP:0   MisRate:0.00%    MPKI:0.00
PC:2dcfe     Total:1      MisBP:0   MisRate:0.00%    MPKI:0.00
PC:115d4     Total:38713      MisBP:0   MisRate:0.00%    MPKI:0.00
PC:2cafe     Total:20      MisBP:0   MisRate:0.00%    MPKI:0.00
PC:31cb0     Total:16      MisBP:0   MisRate:0.00%    MPKI:0.00
PC:2cb02     Total:20      MisBP:0   MisRate:0.00%    MPKI:0.00
PC:115de     Total:37815      MisBP:0   MisRate:0.00%    MPKI:0.00
PC:2cb08     Total:20      MisBP:0   MisRate:0.00%    MPKI:0.00
PC:115ea     Total:37797      MisBP:0   MisRate:0.00%    MPKI:0.00
PC:2cb14     Total:20      MisBP:0   MisRate:0.00%    MPKI:0.00
PC:2cdd8     Total:3      MisBP:0   MisRate:0.00%    MPKI:0.00
PC:2cde6     Total:3      MisBP:0   MisRate:0.00%    MPKI:0.00
PC:2cdf0     Total:3      MisBP:0   MisRate:0.00%    MPKI:0.00
PC:2cdf8     Total:3      MisBP:0   MisRate:0.00%    MPKI:0.00
PC:2d988     Total:13      MisBP:0   MisRate:0.00%    MPKI:0.00
PC:30e38     Total:86      MisBP:0   MisRate:0.00%    MPKI:0.00
PC:10996     Total:59      MisBP:0   MisRate:0.00%    MPKI:0.00
PC:30e3c     Total:86      MisBP:0   MisRate:0.00%    MPKI:0.00
PC:2d7f0     Total:2      MisBP:0   MisRate:0.00%    MPKI:0.00
PC:2d7f4     Total:2      MisBP:0   MisRate:0.00%    MPKI:0.00
PC:2d7fc     Total:2      MisBP:0   MisRate:0.00%    MPKI:0.00
PC:2d8ca     Total:15      MisBP:0   MisRate:0.00%    MPKI:0.00
PC:2d8d4     Total:15      MisBP:0   MisRate:0.00%    MPKI:0.00
PC:2d8f0     Total:7      MisBP:0   MisRate:0.00%    MPKI:0.00
PC:2d7f8     Total:2      MisBP:0   MisRate:0.00%    MPKI:0.00
PC:2d98c     Total:13      MisBP:0   MisRate:0.00%    MPKI:0.00
PC:2d998     Total:13      MisBP:0   MisRate:0.00%    MPKI:0.00
PC:2d99c     Total:13      MisBP:0   MisRate:0.00%    MPKI:0.00
PC:2d9a4     Total:13      MisBP:0   MisRate:0.00%    MPKI:0.00
PC:4aa0c     Total:1      MisBP:0   MisRate:0.00%    MPKI:0.00
PC:31ca0     Total:8      MisBP:0   MisRate:0.00%    MPKI:0.00
PC:31ca4     Total:8      MisBP:0   MisRate:0.00%    MPKI:0.00
PC:31ca8     Total:8      MisBP:0   MisRate:0.00%    MPKI:0.00
PC:31cac     Total:8      MisBP:0   MisRate:0.00%    MPKI:0.00
PC:15584     Total:175      MisBP:0   MisRate:0.00%    MPKI:0.00
PC:1555c     Total:370      MisBP:0   MisRate:0.00%    MPKI:0.00
PC:1555e     Total:370      MisBP:0   MisRate:0.00%    MPKI:0.00
PC:15562     Total:370      MisBP:0   MisRate:0.00%    MPKI:0.00
PC:15566     Total:370      MisBP:0   MisRate:0.00%    MPKI:0.00
PC:1556a     Total:358      MisBP:0   MisRate:0.00%    MPKI:0.00
PC:1556e     Total:357      MisBP:0   MisRate:0.00%    MPKI:0.00
PC:15574     Total:325      MisBP:0   MisRate:0.00%    MPKI:0.00
PC:15576     Total:325      MisBP:0   MisRate:0.00%    MPKI:0.00
PC:1557a     Total:325      MisBP:0   MisRate:0.00%    MPKI:0.00
PC:1557e     Total:325      MisBP:0   MisRate:0.00%    MPKI:0.00
PC:15558     Total:370      MisBP:0   MisRate:0.00%    MPKI:0.00
PC:1558c     Total:186      MisBP:0   MisRate:0.00%    MPKI:0.00
PC:15596     Total:205      MisBP:0   MisRate:0.00%    MPKI:0.00
PC:2bb46     Total:35      MisBP:0   MisRate:0.00%    MPKI:0.00
PC:15598     Total:204      MisBP:0   MisRate:0.00%    MPKI:0.00
PC:156ba     Total:175      MisBP:0   MisRate:0.00%    MPKI:0.00
PC:156bc     Total:175      MisBP:0   MisRate:0.00%    MPKI:0.00
PC:156be     Total:164      MisBP:0   MisRate:0.00%    MPKI:0.00
PC:156c2     Total:164      MisBP:0   MisRate:0.00%    MPKI:0.00
PC:156c6     Total:55      MisBP:0   MisRate:0.00%    MPKI:0.00
PC:156a8     Total:331      MisBP:0   MisRate:0.00%    MPKI:0.00
PC:15690     Total:146      MisBP:0   MisRate:0.00%    MPKI:0.00
PC:15692     Total:146      MisBP:0   MisRate:0.00%    MPKI:0.00
PC:15696     Total:146      MisBP:0   MisRate:0.00%    MPKI:0.00
PC:15698     Total:146      MisBP:0   MisRate:0.00%    MPKI:0.00
PC:1569a     Total:146      MisBP:0   MisRate:0.00%    MPKI:0.00
PC:1569e     Total:231      MisBP:0   MisRate:0.00%    MPKI:0.00
PC:156a0     Total:321      MisBP:0   MisRate:0.00%    MPKI:0.00
PC:156a4     Total:321      MisBP:0   MisRate:0.00%    MPKI:0.00
PC:156a6     Total:320      MisBP:0   MisRate:0.00%    MPKI:0.00
PC:156c8     Total:55      MisBP:0   MisRate:0.00%    MPKI:0.00
PC:156ac     Total:329      MisBP:0   MisRate:0.00%    MPKI:0.00
PC:156ae     Total:326      MisBP:0   MisRate:0.00%    MPKI:0.00
PC:156b6     Total:181      MisBP:0   MisRate:0.00%    MPKI:0.00
PC:15394     Total:296      MisBP:0   MisRate:0.00%    MPKI:0.00
PC:153b4     Total:272      MisBP:0   MisRate:0.00%    MPKI:0.00
PC:35e2e     Total:42      MisBP:0   MisRate:0.00%    MPKI:0.00
PC:10a0c     Total:30      MisBP:0   MisRate:0.00%    MPKI:0.00
PC:15552     Total:387      MisBP:0   MisRate:0.00%    MPKI:0.00
PC:15554     Total:765      MisBP:0   MisRate:0.00%    MPKI:0.00
PC:2d686     Total:5      MisBP:0   MisRate:0.00%    MPKI:0.00
PC:2d674     Total:7      MisBP:0   MisRate:0.00%    MPKI:0.00
PC:153c6     Total:117      MisBP:0   MisRate:0.00%    MPKI:0.00
PC:2d678     Total:7      MisBP:0   MisRate:0.00%    MPKI:0.00
PC:153ca     Total:204      MisBP:0   MisRate:0.00%    MPKI:0.00
PC:2d67c     Total:7      MisBP:0   MisRate:0.00%    MPKI:0.00
PC:10a22     Total:28      MisBP:0   MisRate:0.00%    MPKI:0.00
PC:153ce     Total:204      MisBP:0   MisRate:0.00%    MPKI:0.00
PC:2d680     Total:5      MisBP:0   MisRate:0.00%    MPKI:0.00
PC:153d2     Total:204      MisBP:0   MisRate:0.00%    MPKI:0.00
PC:2d684     Total:5      MisBP:0   MisRate:0.00%    MPKI:0.00
PC:153c2     Total:117      MisBP:0   MisRate:0.00%    MPKI:0.00
PC:153d6     Total:192      MisBP:0   MisRate:0.00%    MPKI:0.00
PC:2d688     Total:5      MisBP:0   MisRate:0.00%    MPKI:0.00
PC:153d8     Total:190      MisBP:0   MisRate:0.00%    MPKI:0.00
PC:2d68a     Total:5      MisBP:0   MisRate:0.00%    MPKI:0.00
PC:153dc     Total:190      MisBP:0   MisRate:0.00%    MPKI:0.00
PC:2d68e     Total:5      MisBP:0   MisRate:0.00%    MPKI:0.00
PC:153e0     Total:189      MisBP:0   MisRate:0.00%    MPKI:0.00
PC:2d692     Total:5      MisBP:0   MisRate:0.00%    MPKI:0.00
PC:2d696     Total:5      MisBP:0   MisRate:0.00%    MPKI:0.00
PC:2d99a     Total:13      MisBP:0   MisRate:0.00%    MPKI:0.00
PC:156d8     Total:188      MisBP:0   MisRate:0.00%    MPKI:0.00
PC:2d98a     Total:13      MisBP:0   MisRate:0.00%    MPKI:0.00
PC:156dc     Total:188      MisBP:0   MisRate:0.00%    MPKI:0.00
PC:156de     Total:210      MisBP:0   MisRate:0.00%    MPKI:0.00
PC:2d990     Total:13      MisBP:0   MisRate:0.00%    MPKI:0.00
PC:156e2     Total:210      MisBP:0   MisRate:0.00%    MPKI:0.00
PC:2d994     Total:13      MisBP:0   MisRate:0.00%    MPKI:0.00
PC:156e4     Total:210      MisBP:0   MisRate:0.00%    MPKI:0.00
PC:156e8     Total:221      MisBP:0   MisRate:0.00%    MPKI:0.00
PC:1568e     Total:10      MisBP:0   MisRate:0.00%    MPKI:0.00
PC:156ec     Total:221      MisBP:0   MisRate:0.00%    MPKI:0.00
PC:2d99e     Total:13      MisBP:0   MisRate:0.00%    MPKI:0.00
PC:156ee     Total:221      MisBP:0   MisRate:0.00%    MPKI:0.00
PC:2d9a0     Total:13      MisBP:0   MisRate:0.00%    MPKI:0.00
PC:156f0     Total:217      MisBP:0   MisRate:0.00%    MPKI:0.00
PC:2d9a2     Total:13      MisBP:0   MisRate:0.00%    MPKI:0.00
PC:156f4     Total:1302      MisBP:0   MisRate:0.00%    MPKI:0.00
PC:153c0     Total:117      MisBP:0   MisRate:0.00%    MPKI:0.00
PC:10a18     Total:28      MisBP:0   MisRate:0.00%    MPKI:0.00
PC:153ac     Total:275      MisBP:0   MisRate:0.00%    MPKI:0.00
PC:148d4     Total:495      MisBP:0   MisRate:0.00%    MPKI:0.00
PC:2d640     Total:63      MisBP:0   MisRate:0.00%    MPKI:0.00
PC:2d650     Total:35      MisBP:0   MisRate:0.00%    MPKI:0.00
PC:148ee     Total:393      MisBP:0   MisRate:0.00%    MPKI:0.00
PC:2d65a     Total:35      MisBP:0   MisRate:0.00%    MPKI:0.00
PC:153a8     Total:281      MisBP:0   MisRate:0.00%    MPKI:0.00
PC:10a00     Total:30      MisBP:0   MisRate:0.00%    MPKI:0.00
PC:148f0     Total:1652      MisBP:0   MisRate:0.00%    MPKI:0.00
PC:2d65c     Total:35      MisBP:0   MisRate:0.00%    MPKI:0.00
PC:2d65e     Total:35      MisBP:0   MisRate:0.00%    MPKI:0.00
PC:15316     Total:79      MisBP:0   MisRate:0.00%    MPKI:0.00
PC:35e26     Total:42      MisBP:0   MisRate:0.00%    MPKI:0.00
PC:10a04     Total:30      MisBP:0   MisRate:0.00%    MPKI:0.00
PC:2d660     Total:35      MisBP:0   MisRate:0.00%    MPKI:0.00
PC:153ae     Total:273      MisBP:0   MisRate:0.00%    MPKI:0.00
PC:30eac     Total:34      MisBP:0   MisRate:0.00%    MPKI:0.00
PC:10a06     Total:30      MisBP:0   MisRate:0.00%    MPKI:0.00
PC:2d662     Total:35      MisBP:0   MisRate:0.00%    MPKI:0.00
PC:2d664     Total:35      MisBP:0   MisRate:0.00%    MPKI:0.00
PC:153b2     Total:272      MisBP:0   MisRate:0.00%    MPKI:0.00
PC:15504     Total:23      MisBP:0   MisRate:0.00%    MPKI:0.00
PC:11dbc     Total:95      MisBP:0   MisRate:0.00%    MPKI:0.00
PC:154fa     Total:23      MisBP:0   MisRate:0.00%    MPKI:0.00
PC:11dbe     Total:95      MisBP:0   MisRate:0.00%    MPKI:0.00
PC:11dc0     Total:94      MisBP:0   MisRate:0.00%    MPKI:0.00
PC:154fe     Total:23      MisBP:0   MisRate:0.00%    MPKI:0.00
PC:11dc2     Total:94      MisBP:0   MisRate:0.00%    MPKI:0.00
PC:15500     Total:23      MisBP:0   MisRate:0.00%    MPKI:0.00
PC:11dc4     Total:94      MisBP:0   MisRate:0.00%    MPKI:0.00
PC:11dc6     Total:94      MisBP:0   MisRate:0.00%    MPKI:0.00
PC:2d668     Total:35      MisBP:0   MisRate:0.00%    MPKI:0.00
PC:11dc8     Total:94      MisBP:0   MisRate:0.00%    MPKI:0.00
PC:11dca     Total:94      MisBP:0   MisRate:0.00%    MPKI:0.00
PC:15508     Total:99      MisBP:0   MisRate:0.00%    MPKI:0.00
PC:152d6     Total:89      MisBP:0   MisRate:0.00%    MPKI:0.00
PC:3f68e     Total:12      MisBP:0   MisRate:0.00%    MPKI:0.00
PC:152f0     Total:81      MisBP:0   MisRate:0.00%    MPKI:0.00
PC:3f6a2     Total:12      MisBP:0   MisRate:0.00%    MPKI:0.00
PC:15304     Total:79      MisBP:0   MisRate:0.00%    MPKI:0.00
PC:3f6b4     Total:3      MisBP:0   MisRate:0.00%    MPKI:0.00
PC:2d9cc     Total:3      MisBP:0   MisRate:0.00%    MPKI:0.00
PC:2d9b2     Total:31      MisBP:0   MisRate:0.00%    MPKI:0.00
PC:2d9b4     Total:31      MisBP:0   MisRate:0.00%    MPKI:0.00
PC:2d9b6     Total:31      MisBP:0   MisRate:0.00%    MPKI:0.00
PC:2d9b8     Total:31      MisBP:0   MisRate:0.00%    MPKI:0.00
PC:2d9bc     Total:31      MisBP:0   MisRate:0.00%    MPKI:0.00
PC:2d9be     Total:27      MisBP:0   MisRate:0.00%    MPKI:0.00
PC:2d9c2     Total:27      MisBP:0   MisRate:0.00%    MPKI:0.00
PC:2d9c4     Total:27      MisBP:0   MisRate:0.00%    MPKI:0.00
PC:2d9c6     Total:27      MisBP:0   MisRate:0.00%    MPKI:0.00
PC:2d9ca     Total:27      MisBP:0   MisRate:0.00%    MPKI:0.00
PC:2d9b0     Total:31      MisBP:0   MisRate:0.00%    MPKI:0.00
PC:2d9ce     Total:3      MisBP:0   MisRate:0.00%    MPKI:0.00
PC:2d9d0     Total:3      MisBP:0   MisRate:0.00%    MPKI:0.00
PC:2d9d2     Total:2      MisBP:0   MisRate:0.00%    MPKI:0.00
PC:2d9d4     Total:2      MisBP:0   MisRate:0.00%    MPKI:0.00
PC:2d9d6     Total:2      MisBP:0   MisRate:0.00%    MPKI:0.00
PC:15680     Total:160      MisBP:0   MisRate:0.00%    MPKI:0.00
PC:15684     Total:160      MisBP:0   MisRate:0.00%    MPKI:0.00
PC:15688     Total:160      MisBP:0   MisRate:0.00%    MPKI:0.00
PC:1568c     Total:160      MisBP:0   MisRate:0.00%    MPKI:0.00
PC:2d780     Total:7      MisBP:0   MisRate:0.00%    MPKI:0.00
PC:153b6     Total:272      MisBP:0   MisRate:0.00%    MPKI:0.00
PC:35e30     Total:42      MisBP:0   MisRate:0.00%    MPKI:0.00
PC:10a0e     Total:30      MisBP:0   MisRate:0.00%    MPKI:0.00
PC:2d66a     Total:64      MisBP:0   MisRate:0.00%    MPKI:0.00
PC:153b8     Total:129      MisBP:0   MisRate:0.00%    MPKI:0.00
PC:2d66c     Total:60      MisBP:0   MisRate:0.00%    MPKI:0.00
PC:10a12     Total:30      MisBP:0   MisRate:0.00%    MPKI:0.00
PC:153bc     Total:129      MisBP:0   MisRate:0.00%    MPKI:0.00
PC:2d670     Total:9      MisBP:0   MisRate:0.00%    MPKI:0.00
PC:3f786     Total:9      MisBP:0   MisRate:0.00%    MPKI:0.00
PC:2d788     Total:6      MisBP:0   MisRate:0.00%    MPKI:0.00
PC:154d6     Total:50      MisBP:0   MisRate:0.00%    MPKI:0.00
PC:2d78e     Total:1      MisBP:0   MisRate:0.00%    MPKI:0.00
PC:2d792     Total:1      MisBP:0   MisRate:0.00%    MPKI:0.00
PC:2d798     Total:1      MisBP:0   MisRate:0.00%    MPKI:0.00
PC:154e6     Total:23      MisBP:0   MisRate:0.00%    MPKI:0.00
PC:2d9aa     Total:9      MisBP:0   MisRate:0.00%    MPKI:0.00
PC:2d9ac     Total:9      MisBP:0   MisRate:0.00%    MPKI:0.00
PC:2d9ae     Total:9      MisBP:0   MisRate:0.00%    MPKI:0.00
PC:155fa     Total:9      MisBP:0   MisRate:0.00%    MPKI:0.00
PC:2d894     Total:4      MisBP:0   MisRate:0.00%    MPKI:0.00
PC:2d896     Total:4      MisBP:0   MisRate:0.00%    MPKI:0.00
PC:2d89a     Total:4      MisBP:0   MisRate:0.00%    MPKI:0.00
PC:155ea     Total:1      MisBP:0   MisRate:0.00%    MPKI:0.00
PC:2d89c     Total:4      MisBP:0   MisRate:0.00%    MPKI:0.00
PC:2d8a0     Total:4      MisBP:0   MisRate:0.00%    MPKI:0.00
PC:2d8a2     Total:4      MisBP:0   MisRate:0.00%    MPKI:0.00
PC:155f4     Total:9      MisBP:0   MisRate:0.00%    MPKI:0.00
PC:2d8a6     Total:4      MisBP:0   MisRate:0.00%    MPKI:0.00
PC:155f8     Total:9      MisBP:0   MisRate:0.00%    MPKI:0.00
PC:155e0     Total:36      MisBP:0   MisRate:0.00%    MPKI:0.00
PC:2d8ac     Total:4      MisBP:0   MisRate:0.00%    MPKI:0.00
PC:155fc     Total:54      MisBP:0   MisRate:0.00%    MPKI:0.00
PC:2d8ae     Total:4      MisBP:0   MisRate:0.00%    MPKI:0.00
PC:2ddae     Total:46      MisBP:0   MisRate:0.00%    MPKI:0.00
PC:2ddb2     Total:46      MisBP:0   MisRate:0.00%    MPKI:0.00
PC:2ddb6     Total:46      MisBP:0   MisRate:0.00%    MPKI:0.00
PC:2ddba     Total:46      MisBP:0   MisRate:0.00%    MPKI:0.00
PC:2ddbe     Total:42      MisBP:0   MisRate:0.00%    MPKI:0.00
PC:2ddc2     Total:42      MisBP:0   MisRate:0.00%    MPKI:0.00
PC:10f74     Total:1      MisBP:0   MisRate:0.00%    MPKI:0.00
PC:1544e     Total:74      MisBP:0   MisRate:0.00%    MPKI:0.00
PC:10f6c     Total:1      MisBP:0   MisRate:0.00%    MPKI:0.00
PC:2c496     Total:2      MisBP:0   MisRate:0.00%    MPKI:0.00
PC:3313a     Total:1      MisBP:0   MisRate:0.00%    MPKI:0.00
PC:1099c     Total:110      MisBP:0   MisRate:0.00%    MPKI:0.00
PC:30e42     Total:62      MisBP:0   MisRate:0.00%    MPKI:0.00
PC:15456     Total:74      MisBP:0   MisRate:0.00%    MPKI:0.00
PC:109a0     Total:110      MisBP:0   MisRate:0.00%    MPKI:0.00
PC:30e46     Total:61      MisBP:0   MisRate:0.00%    MPKI:0.00
PC:2ddc6     Total:42      MisBP:0   MisRate:0.00%    MPKI:0.00
PC:2c49e     Total:2      MisBP:0   MisRate:0.00%    MPKI:0.00
PC:15464     Total:70      MisBP:0   MisRate:0.00%    MPKI:0.00
PC:2c4ac     Total:2      MisBP:0   MisRate:0.00%    MPKI:0.00
PC:15474     Total:134      MisBP:0   MisRate:0.00%    MPKI:0.00
PC:109be     Total:90      MisBP:0   MisRate:0.00%    MPKI:0.00
PC:30e64     Total:57      MisBP:0   MisRate:0.00%    MPKI:0.00
PC:1547e     Total:74      MisBP:0   MisRate:0.00%    MPKI:0.00
PC:109d4     Total:62      MisBP:0   MisRate:0.00%    MPKI:0.00
PC:30e7a     Total:57      MisBP:0   MisRate:0.00%    MPKI:0.00
PC:155a6     Total:107      MisBP:0   MisRate:0.00%    MPKI:0.00
PC:2cc76     Total:1      MisBP:0   MisRate:0.00%    MPKI:0.00
PC:1174c     Total:8326      MisBP:0   MisRate:0.00%    MPKI:0.00
PC:2f436     Total:907      MisBP:0   MisRate:0.00%    MPKI:0.00
PC:1174e     Total:8323      MisBP:0   MisRate:0.00%    MPKI:0.00
PC:2cd82     Total:29      MisBP:0   MisRate:0.00%    MPKI:0.00
PC:2cd86     Total:51      MisBP:0   MisRate:0.00%    MPKI:0.00
PC:155c8     Total:5      MisBP:0   MisRate:0.00%    MPKI:0.00
PC:155ce     Total:5      MisBP:0   MisRate:0.00%    MPKI:0.00
PC:2bb50     Total:35      MisBP:0   MisRate:0.00%    MPKI:0.00
PC:2bb54     Total:35      MisBP:0   MisRate:0.00%    MPKI:0.00
PC:1174a     Total:8327      MisBP:0   MisRate:0.00%    MPKI:0.00
PC:15512     Total:106      MisBP:0   MisRate:0.00%    MPKI:0.00
PC:2d7c4     Total:62      MisBP:0   MisRate:0.00%    MPKI:0.00
PC:1552a     Total:70      MisBP:0   MisRate:0.00%    MPKI:0.00
PC:2d7dc     Total:5      MisBP:0   MisRate:0.00%    MPKI:0.00
PC:15538     Total:67      MisBP:0   MisRate:0.00%    MPKI:0.00
PC:2d7ea     Total:3      MisBP:0   MisRate:0.00%    MPKI:0.00
PC:15540     Total:86      MisBP:0   MisRate:0.00%    MPKI:0.00
PC:15544     Total:85      MisBP:0   MisRate:0.00%    MPKI:0.00
PC:15546     Total:85      MisBP:0   MisRate:0.00%    MPKI:0.00
PC:11740     Total:8352      MisBP:0   MisRate:0.00%    MPKI:0.00
PC:2ddca     Total:42      MisBP:0   MisRate:0.00%    MPKI:0.00
PC:2ddce     Total:37      MisBP:0   MisRate:0.00%    MPKI:0.00
PC:2ddd2     Total:37      MisBP:0   MisRate:0.00%    MPKI:0.00
PC:2ddd6     Total:37      MisBP:0   MisRate:0.00%    MPKI:0.00
PC:2ddda     Total:37      MisBP:0   MisRate:0.00%    MPKI:0.00
PC:2ddde     Total:36      MisBP:0   MisRate:0.00%    MPKI:0.00
PC:2dde2     Total:36      MisBP:0   MisRate:0.00%    MPKI:0.00
PC:2dde4     Total:36      MisBP:0   MisRate:0.00%    MPKI:0.00
PC:2cc6a     Total:56      MisBP:0   MisRate:0.00%    MPKI:0.00
PC:33136     Total:1      MisBP:0   MisRate:0.00%    MPKI:0.00
[...]
PC:11ddc     Total:615      MisBP:0   MisRate:0.00%    MPKI:0.00
PC:1551a     Total:82      MisBP:0   MisRate:0.00%    MPKI:0.00
PC:2cc5e     Total:56      MisBP:0   MisRate:0.00%    MPKI:0.00
PC:2d756     Total:21      MisBP:0   MisRate:0.00%    MPKI:0.00
PC:11d66     Total:133      MisBP:0   MisRate:0.00%    MPKI:0.00
PC:2cf4e     Total:1      MisBP:0   MisRate:0.00%    MPKI:0.00
PC:2cf46     Total:80      MisBP:0   MisRate:0.00%    MPKI:0.00
PC:1529e     Total:15661970      MisBP:0   MisRate:0.00%    MPKI:0.00
PC:2ca3c     Total:73      MisBP:0   MisRate:0.00%    MPKI:0.00
PC:11512     Total:240      MisBP:0   MisRate:0.00%    MPKI:0.00
PC:2cc6c     Total:56      MisBP:0   MisRate:0.00%    MPKI:0.00
PC:2d516     Total:82      MisBP:0   MisRate:0.00%    MPKI:0.00
PC:2d7cc     Total:15      MisBP:0   MisRate:0.00%    MPKI:0.00
PC:2c3b4     Total:5      MisBP:0   MisRate:0.00%    MPKI:0.00
PC:2d61e     Total:554      MisBP:0   MisRate:0.00%    MPKI:0.00
PC:2d508     Total:82      MisBP:0   MisRate:0.00%    MPKI:0.00
PC:15256     Total:693066      MisBP:0   MisRate:0.00%    MPKI:0.00
PC:2ca16     Total:2      MisBP:0   MisRate:0.00%    MPKI:0.00
PC:114ec     Total:291      MisBP:0   MisRate:0.00%    MPKI:0.00
PC:11714     Total:5904      MisBP:0   MisRate:0.00%    MPKI:0.00
PC:2cc3e     Total:77      MisBP:0   MisRate:0.00%    MPKI:0.00
PC:150da     Total:47585      MisBP:0   MisRate:0.00%    MPKI:0.00
PC:2d910     Total:1      MisBP:0   MisRate:0.00%    MPKI:0.00
PC:1565e     Total:161      MisBP:0   MisRate:0.00%    MPKI:0.00
PC:3f6cc     Total:2      MisBP:0   MisRate:0.00%    MPKI:0.00
PC:1532e     Total:34897      MisBP:0   MisRate:0.00%    MPKI:0.00
PC:2d3cc     Total:1      MisBP:0   MisRate:0.00%    MPKI:0.00
PC:150dc     Total:47585      MisBP:0   MisRate:0.00%    MPKI:0.00
PC:2d5b4     Total:94      MisBP:0   MisRate:0.00%    MPKI:0.00
PC:3f6a0     Total:12      MisBP:0   MisRate:0.00%    MPKI:0.00
PC:15302     Total:79      MisBP:0   MisRate:0.00%    MPKI:0.00
PC:11688     Total:10343      MisBP:0   MisRate:0.00%    MPKI:0.00
PC:150d8     Total:47641      MisBP:0   MisRate:0.00%    MPKI:0.00
PC:150d4     Total:47643      MisBP:0   MisRate:0.00%    MPKI:0.00
PC:2de3c     Total:1      MisBP:0   MisRate:0.00%    MPKI:0.00
PC:150d0     Total:55535      MisBP:0   MisRate:0.00%    MPKI:0.00
PC:2de38     Total:1      MisBP:0   MisRate:0.00%    MPKI:0.00
PC:150cc     Total:55542      MisBP:0   MisRate:0.00%    MPKI:0.00
PC:2de36     Total:1      MisBP:0   MisRate:0.00%    MPKI:0.00
PC:150ca     Total:55692      MisBP:0   MisRate:0.00%    MPKI:0.00
PC:2d56c     Total:218      MisBP:0   MisRate:0.00%    MPKI:0.00
PC:2cb46     Total:1      MisBP:0   MisRate:0.00%    MPKI:0.00
PC:1161c     Total:1055      MisBP:0   MisRate:0.00%    MPKI:0.00
PC:152c2     Total:23899      MisBP:0   MisRate:0.00%    MPKI:0.00
PC:2d574     Total:215      MisBP:0   MisRate:0.00%    MPKI:0.00
PC:11616     Total:23961      MisBP:0   MisRate:0.00%    MPKI:0.00
PC:152bc     Total:27155      MisBP:0   MisRate:0.00%    MPKI:0.00
PC:2cb3e     Total:1      MisBP:0   MisRate:0.00%    MPKI:0.00
PC:11614     Total:23961      MisBP:0   MisRate:0.00%    MPKI:0.00
PC:152ba     Total:27157      MisBP:0   MisRate:0.00%    MPKI:0.00
PC:10978     Total:75      MisBP:0   MisRate:0.00%    MPKI:0.00
PC:10912     Total:117      MisBP:0   MisRate:0.00%    MPKI:0.00
PC:11692     Total:10343      MisBP:0   MisRate:0.00%    MPKI:0.00
PC:15338     Total:34944      MisBP:0   MisRate:0.00%    MPKI:0.00
PC:10990     Total:73      MisBP:0   MisRate:0.00%    MPKI:0.00
PC:2d3d6     Total:1      MisBP:0   MisRate:0.00%    MPKI:0.00
PC:114f0     Total:291      MisBP:0   MisRate:0.00%    MPKI:0.00
PC:2cc4a     Total:57      MisBP:0   MisRate:0.00%    MPKI:0.00
PC:2d4f4     Total:83      MisBP:0   MisRate:0.00%    MPKI:0.00
PC:2d764     Total:27      MisBP:0   MisRate:0.00%    MPKI:0.00
PC:154b8     Total:54      MisBP:0   MisRate:0.00%    MPKI:0.00
PC:114e2     Total:325      MisBP:0   MisRate:0.00%    MPKI:0.00
PC:1511e     Total:296694      MisBP:0   MisRate:0.00%    MPKI:0.00
PC:1092c     Total:88      MisBP:0   MisRate:0.00%    MPKI:0.00
PC:152a2     Total:15658076      MisBP:0   MisRate:0.00%    MPKI:0.00
PC:2ef52     Total:42      MisBP:0   MisRate:0.00%    MPKI:0.00
PC:26e6c     Total:31      MisBP:0   MisRate:0.00%    MPKI:0.00
PC:1511c     Total:296698      MisBP:0   MisRate:0.00%    MPKI:0.00
PC:11d7a     Total:150      MisBP:0   MisRate:0.00%    MPKI:0.00
PC:154b2     Total:103      MisBP:0   MisRate:0.00%    MPKI:0.00
PC:15182     Total:1715702      MisBP:0   MisRate:0.00%    MPKI:0.00
PC:2ca06     Total:2      MisBP:0   MisRate:0.00%    MPKI:0.00
PC:114dc     Total:325      MisBP:0   MisRate:0.00%    MPKI:0.00
PC:15118     Total:302992      MisBP:0   MisRate:0.00%    MPKI:0.00
PC:2d3ca     Total:1      MisBP:0   MisRate:0.00%    MPKI:0.00
PC:2d5f0     Total:39      MisBP:0   MisRate:0.00%    MPKI:0.00
PC:11d82     Total:160      MisBP:0   MisRate:0.00%    MPKI:0.00
PC:1518c     Total:1715566      MisBP:0   MisRate:0.00%    MPKI:0.00
PC:2cc44     Total:57      MisBP:0   MisRate:0.00%    MPKI:0.00
PC:2d4ee     Total:46      MisBP:0   MisRate:0.00%    MPKI:0.00
PC:1523c     Total:14632267      MisBP:0   MisRate:0.00%    MPKI:0.00
PC:33100     Total:102      MisBP:0   MisRate:0.00%    MPKI:0.00
PC:15126     Total:12657925      MisBP:0   MisRate:0.00%    MPKI:0.00
PC:2d3d8     Total:1      MisBP:0   MisRate:0.00%    MPKI:0.00
PC:2d76e     Total:15      MisBP:0   MisRate:0.00%    MPKI:0.00
PC:154bc     Total:54      MisBP:0   MisRate:0.00%    MPKI:0.00
PC:154c0     Total:50      MisBP:0   MisRate:0.00%    MPKI:0.00
PC:2ca10     Total:2      MisBP:0   MisRate:0.00%    MPKI:0.00
PC:114e6     Total:318      MisBP:0   MisRate:0.00%    MPKI:0.00
PC:11716     Total:5900      MisBP:0   MisRate:0.00%    MPKI:0.00
PC:2cc40     Total:57      MisBP:0   MisRate:0.00%    MPKI:0.00
PC:2d4ea     Total:46      MisBP:0   MisRate:0.00%    MPKI:0.00
PC:15238     Total:14639445      MisBP:0   MisRate:0.00%    MPKI:0.00
PC:330fc     Total:46      MisBP:0   MisRate:0.00%    MPKI:0.00
PC:2d76a     Total:38      MisBP:0   MisRate:0.00%    MPKI:0.00
PC:15104     Total:4405543      MisBP:0   MisRate:0.00%    MPKI:0.00
PC:1510a     Total:303062      MisBP:0   MisRate:0.00%    MPKI:0.00
PC:2d3bc     Total:41      MisBP:0   MisRate:0.00%    MPKI:0.00
PC:2d5e2     Total:1      MisBP:0   MisRate:0.00%    MPKI:0.00
PC:3f6ce     Total:2      MisBP:0   MisRate:0.00%    MPKI:0.00
PC:15330     Total:34971      MisBP:0   MisRate:0.00%    MPKI:0.00
PC:10988     Total:10      MisBP:0   MisRate:0.00%    MPKI:0.00
PC:15202     Total:13227029      MisBP:0   MisRate:0.00%    MPKI:0.00
PC:2d4b4     Total:11      MisBP:0   MisRate:0.00%    MPKI:0.00
PC:1098c     Total:10      MisBP:0   MisRate:0.00%    MPKI:0.00
PC:15200     Total:13228042      MisBP:0   MisRate:0.00%    MPKI:0.00
PC:15100     Total:4406252      MisBP:0   MisRate:0.00%    MPKI:0.00
PC:2d3b2     Total:41      MisBP:0   MisRate:0.00%    MPKI:0.00
PC:2d3ae     Total:41      MisBP:0   MisRate:0.00%    MPKI:0.00
PC:150fa     Total:13026421      MisBP:0   MisRate:0.00%    MPKI:0.00
PC:2d3ac     Total:41      MisBP:0   MisRate:0.00%    MPKI:0.00
PC:2d5d2     Total:1      MisBP:0   MisRate:0.00%    MPKI:0.00
PC:3f6be     Total:2      MisBP:0   MisRate:0.00%    MPKI:0.00
PC:15110     Total:303034      MisBP:0   MisRate:0.00%    MPKI:0.00
PC:2d760     Total:54      MisBP:0   MisRate:0.00%    MPKI:0.00
PC:11d70     Total:143      MisBP:0   MisRate:0.00%    MPKI:0.00
PC:154ae     Total:103      MisBP:0   MisRate:0.00%    MPKI:0.00
PC:1517e     Total:1716012      MisBP:0   MisRate:0.00%    MPKI:0.00
PC:114d8     Total:4143      MisBP:0   MisRate:0.00%    MPKI:0.00
PC:2d4dc     Total:46      MisBP:0   MisRate:0.00%    MPKI:0.00
PC:330ee     Total:62      MisBP:0   MisRate:0.00%    MPKI:0.00
PC:15114     Total:302998      MisBP:0   MisRate:0.00%    MPKI:0.00
PC:2d3d0     Total:1      MisBP:0   MisRate:0.00%    MPKI:0.00
PC:2d3c2     Total:41      MisBP:0   MisRate:0.00%    MPKI:0.00
PC:2d5e8     Total:40      MisBP:0   MisRate:0.00%    MPKI:0.00
PC:3f6d4     Total:2      MisBP:0   MisRate:0.00%    MPKI:0.00
PC:15336     Total:34945      MisBP:0   MisRate:0.00%    MPKI:0.00
PC:1510e     Total:303034      MisBP:0   MisRate:0.00%    MPKI:0.00
PC:2d3c0     Total:41      MisBP:0   MisRate:0.00%    MPKI:0.00
PC:2ef42     Total:42      MisBP:0   MisRate:0.00%    MPKI:0.00
PC:26e5c     Total:32      MisBP:0   MisRate:0.00%    MPKI:0.00
PC:2ef80     Total:96      MisBP:0   MisRate:0.00%    MPKI:0.00
PC:116a0     Total:19246      MisBP:0   MisRate:0.00%    MPKI:0.00
PC:116a8     Total:19035      MisBP:0   MisRate:0.00%    MPKI:0.00
PC:2d3e2     Total:1      MisBP:0   MisRate:0.00%    MPKI:0.00
PC:2d928     Total:1      MisBP:0   MisRate:0.00%    MPKI:0.00
PC:2d5f6     Total:13      MisBP:0   MisRate:0.00%    MPKI:0.00
PC:2c3b6     Total:25      MisBP:0   MisRate:0.00%    MPKI:0.00
PC:2d3de     Total:1      MisBP:0   MisRate:0.00%    MPKI:0.00
PC:2d930     Total:1      MisBP:0   MisRate:0.00%    MPKI:0.00
PC:3f66e     Total:13      MisBP:0   MisRate:0.00%    MPKI:0.00
PC:26e9e     Total:5      MisBP:0   MisRate:0.00%    MPKI:0.00
PC:15676     Total:161      MisBP:0   MisRate:0.00%    MPKI:0.00
PC:2ca14     Total:2      MisBP:0   MisRate:0.00%    MPKI:0.00
PC:114ea     Total:318      MisBP:0   MisRate:0.00%    MPKI:0.00
PC:2d3e4     Total:2      MisBP:0   MisRate:0.00%    MPKI:0.00
PC:10928     Total:92      MisBP:0   MisRate:0.00%    MPKI:0.00
PC:26e9a     Total:5      MisBP:0   MisRate:0.00%    MPKI:0.00
PC:2ef84     Total:94      MisBP:0   MisRate:0.00%    MPKI:0.00
PC:2d50a     Total:82      MisBP:0   MisRate:0.00%    MPKI:0.00
PC:152d0     Total:89      MisBP:0   MisRate:0.00%    MPKI:0.00
PC:2cc60     Total:56      MisBP:0   MisRate:0.00%    MPKI:0.00
PC:2d61c     Total:555      MisBP:0   MisRate:0.00%    MPKI:0.00
PC:1536a     Total:1099      MisBP:0   MisRate:0.00%    MPKI:0.00
PC:15132     Total:5171163      MisBP:0   MisRate:0.00%    MPKI:0.00
PC:4f42a     Total:4      MisBP:0   MisRate:0.00%    MPKI:0.00
PC:11736     Total:12840      MisBP:0   MisRate:0.00%    MPKI:0.00
PC:2d620     Total:539      MisBP:0   MisRate:0.00%    MPKI:0.00
PC:11506     Total:243      MisBP:0   MisRate:0.00%    MPKI:0.00
PC:2ca30     Total:2      MisBP:0   MisRate:0.00%    MPKI:0.00
PC:2cf4a     Total:80      MisBP:1   MisRate:1.25%    MPKI:0.00
PC:2d6c4     Total:4      MisBP:1   MisRate:25.00%    MPKI:0.00
PC:1098e     Total:10      MisBP:1   MisRate:10.00%    MPKI:0.00
PC:2dc8e     Total:1      MisBP:1   MisRate:100.00%    MPKI:0.00
PC:3f6ae     Total:12      MisBP:1   MisRate:8.33%    MPKI:0.00
PC:2d77c     Total:14      MisBP:1   MisRate:7.14%    MPKI:0.00
PC:2d3c6     Total:41      MisBP:1   MisRate:2.44%    MPKI:0.00
PC:15602     Total:8      MisBP:1   MisRate:12.50%    MPKI:0.00
PC:2d47e     Total:8      MisBP:1   MisRate:12.50%    MPKI:0.00
PC:2d784     Total:6      MisBP:1   MisRate:16.67%    MPKI:0.00
PC:2d8e2     Total:15      MisBP:2   MisRate:13.33%    MPKI:0.00
PC:11d84     Total:971      MisBP:2   MisRate:0.21%    MPKI:0.00
PC:2d766     Total:27      MisBP:2   MisRate:7.41%    MPKI:0.00
PC:2d60a     Total:8      MisBP:2   MisRate:25.00%    MPKI:0.00
PC:2c9e8     Total:78      MisBP:2   MisRate:2.56%    MPKI:0.00
PC:15630     Total:247      MisBP:2   MisRate:0.81%    MPKI:0.00
PC:2d8e8     Total:15      MisBP:3   MisRate:20.00%    MPKI:0.00
PC:2d9a8     Total:13      MisBP:3   MisRate:23.08%    MPKI:0.00
PC:2d8f8     Total:18      MisBP:3   MisRate:16.67%    MPKI:0.00
PC:15528     Total:76      MisBP:3   MisRate:3.95%    MPKI:0.00
PC:2cdd4     Total:5      MisBP:3   MisRate:60.00%    MPKI:0.00
PC:1536e     Total:5504      MisBP:3   MisRate:0.05%    MPKI:0.00
PC:2f44a     Total:664      MisBP:3   MisRate:0.45%    MPKI:0.00
PC:2d44e     Total:9      MisBP:3   MisRate:33.33%    MPKI:0.00
PC:2d66e     Total:58      MisBP:3   MisRate:5.17%    MPKI:0.00
PC:1562a     Total:247      MisBP:3   MisRate:1.21%    MPKI:0.00
PC:2d758     Total:21      MisBP:4   MisRate:19.05%    MPKI:0.00
PC:2d710     Total:81      MisBP:4   MisRate:4.94%    MPKI:0.00
PC:2c8ba     Total:216      MisBP:4   MisRate:1.85%    MPKI:0.00
PC:2d596     Total:115      MisBP:4   MisRate:3.48%    MPKI:0.00
PC:2da5c     Total:13      MisBP:4   MisRate:30.77%    MPKI:0.00
PC:15452     Total:74      MisBP:4   MisRate:5.41%    MPKI:0.00
PC:155bc     Total:23      MisBP:5   MisRate:21.74%    MPKI:0.00
PC:2ca6c     Total:13      MisBP:5   MisRate:38.46%    MPKI:0.00
PC:2d7d0     Total:15      MisBP:5   MisRate:33.33%    MPKI:0.00
PC:11d94     Total:95      MisBP:5   MisRate:5.26%    MPKI:0.00
PC:2d492     Total:112      MisBP:5   MisRate:4.46%    MPKI:0.00
PC:2d71e     Total:82      MisBP:5   MisRate:6.10%    MPKI:0.00
PC:30e94     Total:46      MisBP:5   MisRate:10.87%    MPKI:0.00
PC:2d9f8     Total:63      MisBP:5   MisRate:7.94%    MPKI:0.00
PC:2d76c     Total:38      MisBP:6   MisRate:15.79%    MPKI:0.00
PC:2d724     Total:81      MisBP:6   MisRate:7.41%    MPKI:0.00
PC:2d4ac     Total:42      MisBP:6   MisRate:14.29%    MPKI:0.00
PC:155dc     Total:39      MisBP:6   MisRate:15.38%    MPKI:0.00
PC:156b8     Total:181      MisBP:7   MisRate:3.87%    MPKI:0.00
PC:2d4c4     Total:41      MisBP:7   MisRate:17.07%    MPKI:0.00
PC:152b6     Total:439426      MisBP:7   MisRate:0.00%    MPKI:0.00
PC:2d5be     Total:92      MisBP:8   MisRate:8.70%    MPKI:0.00
PC:1540a     Total:137      MisBP:8   MisRate:5.84%    MPKI:0.00
PC:2cd54     Total:84      MisBP:9   MisRate:10.71%    MPKI:0.00
PC:30e40     Total:77      MisBP:9   MisRate:11.69%    MPKI:0.00
PC:2d5a8     Total:104      MisBP:9   MisRate:8.65%    MPKI:0.00
PC:11d74     Total:121      MisBP:9   MisRate:7.44%    MPKI:0.00
PC:1548a     Total:74      MisBP:9   MisRate:12.16%    MPKI:0.00
PC:2d57e     Total:201      MisBP:9   MisRate:4.48%    MPKI:0.00
PC:14fc4     Total:214      MisBP:10   MisRate:4.67%    MPKI:0.00
PC:1541a     Total:107      MisBP:11   MisRate:10.28%    MPKI:0.00
PC:2d9e2     Total:79      MisBP:11   MisRate:13.92%    MPKI:0.00
PC:2ca44     Total:62      MisBP:11   MisRate:17.74%    MPKI:0.00
PC:15518     Total:106      MisBP:12   MisRate:11.32%    MPKI:0.00
PC:154b4     Total:103      MisBP:12   MisRate:11.65%    MPKI:0.00
PC:2c9ba     Total:138      MisBP:12   MisRate:8.70%    MPKI:0.00
PC:2d7ca     Total:74      MisBP:13   MisRate:17.57%    MPKI:0.00
PC:1547a     Total:133      MisBP:14   MisRate:10.53%    MPKI:0.00
PC:26e52     Total:53      MisBP:14   MisRate:26.42%    MPKI:0.00
PC:10984     Total:176      MisBP:15   MisRate:8.52%    MPKI:0.00
PC:15570     Total:356      MisBP:16   MisRate:4.49%    MPKI:0.00
PC:15588     Total:175      MisBP:16   MisRate:9.14%    MPKI:0.00
PC:15442     Total:120      MisBP:16   MisRate:13.33%    MPKI:0.00
PC:153d4     Total:204      MisBP:17   MisRate:8.33%    MPKI:0.00
PC:2da2e     Total:64      MisBP:17   MisRate:26.56%    MPKI:0.00
PC:2caa2     Total:79      MisBP:19   MisRate:24.05%    MPKI:0.00
PC:26e46     Total:34      MisBP:19   MisRate:55.88%    MPKI:0.00
PC:154e4     Total:100      MisBP:19   MisRate:19.00%    MPKI:0.00
PC:155a2     Total:87      MisBP:19   MisRate:21.84%    MPKI:0.00
PC:15550     Total:85      MisBP:19   MisRate:22.35%    MPKI:0.00
PC:10932     Total:160      MisBP:22   MisRate:13.75%    MPKI:0.00
PC:15580     Total:300      MisBP:24   MisRate:8.00%    MPKI:0.00
PC:2d58e     Total:209      MisBP:26   MisRate:12.44%    MPKI:0.00
PC:2da3e     Total:78      MisBP:27   MisRate:34.62%    MPKI:0.00
PC:153e4     Total:182      MisBP:28   MisRate:15.38%    MPKI:0.00
PC:2c998     Total:182      MisBP:28   MisRate:15.38%    MPKI:0.00
PC:2d9ee     Total:827      MisBP:29   MisRate:3.51%    MPKI:0.00
PC:1099a     Total:156      MisBP:29   MisRate:18.59%    MPKI:0.00
PC:2d618     Total:79      MisBP:32   MisRate:40.51%    MPKI:0.00
PC:2d628     Total:579      MisBP:37   MisRate:6.39%    MPKI:0.00
PC:109c8     Total:90      MisBP:37   MisRate:41.11%    MPKI:0.00
PC:10f62     Total:141      MisBP:40   MisRate:28.37%    MPKI:0.00
PC:156b4     Total:208      MisBP:40   MisRate:19.23%    MPKI:0.00
PC:156b2     Total:326      MisBP:48   MisRate:14.72%    MPKI:0.00
PC:2d560     Total:260      MisBP:54   MisRate:20.77%    MPKI:0.00
PC:11dd0     Total:747      MisBP:56   MisRate:7.50%    MPKI:0.00
PC:15354     Total:65302      MisBP:78   MisRate:0.12%    MPKI:0.00
PC:15642     Total:245      MisBP:79   MisRate:32.24%    MPKI:0.00
PC:116d6     Total:13660      MisBP:80   MisRate:0.59%    MPKI:0.00
PC:1164a     Total:25685      MisBP:86   MisRate:0.33%    MPKI:0.00
PC:11702     Total:8498      MisBP:114   MisRate:1.34%    MPKI:0.00
PC:15352     Total:66317      MisBP:124   MisRate:0.19%    MPKI:0.00
PC:1159c     Total:10910      MisBP:141   MisRate:1.29%    MPKI:0.00
PC:15156     Total:333584      MisBP:143   MisRate:0.04%    MPKI:0.00
PC:1170e     Total:8310      MisBP:172   MisRate:2.07%    MPKI:0.00
PC:116b4     Total:18773      MisBP:191   MisRate:1.02%    MPKI:0.00
PC:1171a     Total:5900      MisBP:202   MisRate:3.42%    MPKI:0.00
PC:11762     Total:17433      MisBP:212   MisRate:1.22%    MPKI:0.00
PC:15190     Total:1715154      MisBP:247   MisRate:0.01%    MPKI:0.00
PC:115b4     Total:10508      MisBP:249   MisRate:2.37%    MPKI:0.00
PC:116ec     Total:13384      MisBP:299   MisRate:2.23%    MPKI:0.00
PC:11592     Total:23950      MisBP:332   MisRate:1.39%    MPKI:0.00
PC:1173a     Total:12837      MisBP:400   MisRate:3.12%    MPKI:0.00
PC:115ac     Total:21123      MisBP:406   MisRate:1.92%    MPKI:0.00
PC:151c8     Total:617207      MisBP:482   MisRate:0.08%    MPKI:0.00
PC:11618     Total:23961      MisBP:1287   MisRate:5.37%    MPKI:0.00
PC:15122     Total:296693      MisBP:1312   MisRate:0.44%    MPKI:0.00
PC:15298     Total:5629522      MisBP:1400   MisRate:0.02%    MPKI:0.00
PC:15264     Total:692340      MisBP:2627   MisRate:0.38%    MPKI:0.01
PC:11684     Total:20575      MisBP:2766   MisRate:13.44%    MPKI:0.01
PC:15236     Total:2842963      MisBP:3224   MisRate:0.11%    MPKI:0.01
PC:151fe     Total:849767      MisBP:3315   MisRate:0.39%    MPKI:0.01
PC:1160a     Total:27092      MisBP:4274   MisRate:15.78%    MPKI:0.01
PC:11632     Total:28855      MisBP:5688   MisRate:19.71%    MPKI:0.02
PC:115ec     Total:37782      MisBP:9309   MisRate:24.64%    MPKI:0.03
PC:15358     Total:61730      MisBP:13341   MisRate:21.61%    MPKI:0.04
PC:152ae     Total:15640449      MisBP:60753   MisRate:0.39%    MPKI:0.20
PC:1524a     Total:5605109      MisBP:569617   MisRate:10.16%    MPKI:1.84
PC:1513c     Total:5165017      MisBP:588961   MisRate:11.40%    MPKI:1.90
PC:151ae     Total:5095443      MisBP:658535   MisRate:12.92%    MPKI:2.12
PC:15108     Total:4405106      MisBP:663954   MisRate:15.07%    MPKI:2.14
PC:151e4     Total:5148095      MisBP:836936   MisRate:16.26%    MPKI:2.70
PC:1521c     Total:7304637      MisBP:958123   MisRate:13.12%    MPKI:3.09
PC:15176     Total:5991562      MisBP:1311015   MisRate:21.88%    MPKI:4.23
PC:150fc     Total:13024326      MisBP:1354637   MisRate:10.40%    MPKI:4.37
PC:1527e     Total:10378386      MisBP:1377394   MisRate:13.27%    MPKI:4.44
PC:151dc     Total:12474970      MisBP:1514512   MisRate:12.14%    MPKI:4.89
PC:15276     Total:15663822      MisBP:1576054   MisRate:10.06%    MPKI:5.08
PC:15214     Total:13208956      MisBP:1659356   MisRate:12.56%    MPKI:5.35
PC:151a6     Total:12471928      MisBP:1681830   MisRate:13.48%    MPKI:5.43
PC:1516a     Total:12394990      MisBP:1721229   MisRate:13.89%    MPKI:5.55
PC:15130     Total:12649921      MisBP:1764147   MisRate:13.95%    MPKI:5.69
PC:15242     Total:14148907      MisBP:2285910   MisRate:16.16%    MPKI:7.37
Totfetch:1071355736  TotInsts:310000000  TotMis : inf%   MPKI : 66.57
=============finish sim!!!!!!=============
Done running SimPoint!
