Global frequency set at 1000000000000 ticks per second
 Register [printBranch()] ExitCallback !!!!!!! 
gem5 Simulator System.  https://www.gem5.org
gem5 is copyrighted software; use the --copyright option for details.

gem5 version 22.0.0.2
gem5 compiled Sep  7 2022 00:42:18
gem5 started Sep  7 2022 06:12:55
gem5 executing on a100, pid 2822051
command line: /data/zxf/gem5/gem5-prof/build/ARM/gem5.fast --outdir=/data/zxf/checkpoint/spec2006/401.bzip2/prof/bzip2_ckp_14 /data/zxf/gem5/gem5-prof/configs/example/se.py --cpu-type O3CPU --cpu-clock 1GHz --num-cpu 1 --l1d-hwp-type=BOPPrefetcher --caches --l2cache --l1i_size 32kB --l1d_size 32kB --l2_size 1MB --l1i_assoc 8 --l1d_assoc 8 --l2_assoc 16 --cacheline_size 64 --mem-type DDR3_2133_8x8 --mem-size 16GB --restore-simpoint-checkpoint -r 14 --checkpoint-dir /data/zxf/checkpoint/spec2006/401.bzip2/ckpt -c bzip2_base.gcc41-64bit -o 'input.source 280'

info: Standard input is not a terminal, disabling listeners.
Resuming from /data/zxf/checkpoint/spec2006/401.bzip2/ckpt/cpt.simpoint_13_inst_267890000000_weight_0.028512_interval_300000000_warmup_10000000
Resuming from SimPoint #13, start_inst:267890000000, weight:0.028512, interval:300000000, warmup:10000000
Switch at curTick count:10000
Switched CPUS @ tick 165244005053000
[(<m5.objects.ArmCPU.ArmAtomicSimpleCPU object at 0x7ff22ef20bb0>, <m5.objects.ArmCPU.ArmO3CPU object at 0x7ff22ef38e20>)]
switching cpus



+++++++++++++++++++++++++zxf print simpoint+++++++++++++++++++++++++++
Warmed up! Dumping and resetting stats!


=============start sim!!!!!!=============
PC:169da     Total:165      MisBP:0   MisRate:0.00%    MPKI:0.00
PC:13eba     Total:917      MisBP:0   MisRate:0.00%    MPKI:0.00
PC:18590     Total:15786      MisBP:0   MisRate:0.00%    MPKI:0.00
PC:13ebe     Total:3      MisBP:0   MisRate:0.00%    MPKI:0.00
PC:16edc     Total:74      MisBP:0   MisRate:0.00%    MPKI:0.00
PC:1471e     Total:1067      MisBP:0   MisRate:0.00%    MPKI:0.00
PC:3622e     Total:7      MisBP:0   MisRate:0.00%    MPKI:0.00
PC:135ca     Total:949      MisBP:0   MisRate:0.00%    MPKI:0.00
PC:293a8     Total:244      MisBP:0   MisRate:0.00%    MPKI:0.00
PC:361c2     Total:166      MisBP:0   MisRate:0.00%    MPKI:0.00
PC:1355e     Total:833      MisBP:0   MisRate:0.00%    MPKI:0.00
PC:1e5aa     Total:11      MisBP:0   MisRate:0.00%    MPKI:0.00
PC:146b2     Total:1287      MisBP:0   MisRate:0.00%    MPKI:0.00
PC:16eec     Total:73      MisBP:0   MisRate:0.00%    MPKI:0.00
PC:1472e     Total:5      MisBP:0   MisRate:0.00%    MPKI:0.00
PC:13610     Total:108      MisBP:0   MisRate:0.00%    MPKI:0.00
PC:16ef0     Total:56      MisBP:0   MisRate:0.00%    MPKI:0.00
PC:14732     Total:2      MisBP:0   MisRate:0.00%    MPKI:0.00
PC:16e84     Total:16      MisBP:0   MisRate:0.00%    MPKI:0.00
PC:146c6     Total:271      MisBP:0   MisRate:0.00%    MPKI:0.00
PC:16ef4     Total:56      MisBP:0   MisRate:0.00%    MPKI:0.00
PC:14736     Total:1      MisBP:0   MisRate:0.00%    MPKI:0.00
PC:16c0a     Total:16      MisBP:0   MisRate:0.00%    MPKI:0.00
PC:13e8c     Total:62418      MisBP:0   MisRate:0.00%    MPKI:0.00
PC:16ef8     Total:112      MisBP:0   MisRate:0.00%    MPKI:0.00
PC:1473a     Total:1      MisBP:0   MisRate:0.00%    MPKI:0.00
PC:13e90     Total:62294      MisBP:0   MisRate:0.00%    MPKI:0.00
PC:16e8c     Total:16      MisBP:0   MisRate:0.00%    MPKI:0.00
PC:146ce     Total:116      MisBP:0   MisRate:0.00%    MPKI:0.00
PC:13ee4     Total:1110      MisBP:0   MisRate:0.00%    MPKI:0.00
PC:137e2     Total:6      MisBP:0   MisRate:0.00%    MPKI:0.00
PC:1875e     Total:11      MisBP:0   MisRate:0.00%    MPKI:0.00
PC:11024     Total:1091      MisBP:0   MisRate:0.00%    MPKI:0.00
PC:16c36     Total:14      MisBP:0   MisRate:0.00%    MPKI:0.00
PC:135fc     Total:947      MisBP:0   MisRate:0.00%    MPKI:0.00
PC:13ea6     Total:61872      MisBP:0   MisRate:0.00%    MPKI:0.00
PC:13edc     Total:806      MisBP:0   MisRate:0.00%    MPKI:0.00
PC:3622a     Total:10      MisBP:0   MisRate:0.00%    MPKI:0.00
PC:293a4     Total:131      MisBP:0   MisRate:0.00%    MPKI:0.00
PC:1471a     Total:1074      MisBP:0   MisRate:0.00%    MPKI:0.00
PC:13eae     Total:61852      MisBP:0   MisRate:0.00%    MPKI:0.00
PC:16a36     Total:136      MisBP:0   MisRate:0.00%    MPKI:0.00
PC:292d2     Total:1      MisBP:0   MisRate:0.00%    MPKI:0.00
PC:17ca0     Total:29      MisBP:0   MisRate:0.00%    MPKI:0.00
PC:16efc     Total:56      MisBP:0   MisRate:0.00%    MPKI:0.00
PC:17b8a     Total:9225      MisBP:0   MisRate:0.00%    MPKI:0.00
PC:16ee0     Total:74      MisBP:0   MisRate:0.00%    MPKI:0.00
PC:14722     Total:5      MisBP:0   MisRate:0.00%    MPKI:0.00
PC:137ee     Total:5      MisBP:0   MisRate:0.00%    MPKI:0.00
PC:1876a     Total:11      MisBP:0   MisRate:0.00%    MPKI:0.00
PC:11030     Total:1055      MisBP:0   MisRate:0.00%    MPKI:0.00
PC:16c42     Total:12      MisBP:0   MisRate:0.00%    MPKI:0.00
PC:16a08     Total:147      MisBP:0   MisRate:0.00%    MPKI:0.00
PC:18588     Total:15791      MisBP:0   MisRate:0.00%    MPKI:0.00
PC:13eb6     Total:62820      MisBP:0   MisRate:0.00%    MPKI:0.00
PC:16ee8     Total:73      MisBP:0   MisRate:0.00%    MPKI:0.00
PC:1472a     Total:5      MisBP:0   MisRate:0.00%    MPKI:0.00
PC:1858c     Total:15790      MisBP:0   MisRate:0.00%    MPKI:0.00
PC:16ebc     Total:55      MisBP:0   MisRate:0.00%    MPKI:0.00
PC:18ee4     Total:1067      MisBP:0   MisRate:0.00%    MPKI:0.00
PC:13f68     Total:1      MisBP:0   MisRate:0.00%    MPKI:0.00
PC:13f6a     Total:1      MisBP:0   MisRate:0.00%    MPKI:0.00
PC:16a0e     Total:147      MisBP:0   MisRate:0.00%    MPKI:0.00
PC:13ebc     Total:917      MisBP:0   MisRate:0.00%    MPKI:0.00
PC:169a2     Total:187      MisBP:0   MisRate:0.00%    MPKI:0.00
PC:29384     Total:246      MisBP:0   MisRate:0.00%    MPKI:0.00
PC:16eb8     Total:55      MisBP:0   MisRate:0.00%    MPKI:0.00
PC:146fa     Total:913      MisBP:0   MisRate:0.00%    MPKI:0.00
PC:361b6     Total:167      MisBP:0   MisRate:0.00%    MPKI:0.00
PC:1e59e     Total:11      MisBP:0   MisRate:0.00%    MPKI:0.00
PC:16e64     Total:5296      MisBP:0   MisRate:0.00%    MPKI:0.00
PC:169a6     Total:186      MisBP:0   MisRate:0.00%    MPKI:0.00
PC:29388     Total:245      MisBP:0   MisRate:0.00%    MPKI:0.00
PC:17c0e     Total:6577      MisBP:0   MisRate:0.00%    MPKI:0.00
PC:146fe     Total:68      MisBP:0   MisRate:0.00%    MPKI:0.00
PC:29554     Total:10514      MisBP:0   MisRate:0.00%    MPKI:0.00
PC:10f72     Total:1297      MisBP:0   MisRate:0.00%    MPKI:0.00
PC:29568     Total:10509      MisBP:0   MisRate:0.00%    MPKI:0.00
PC:1470a     Total:1078      MisBP:0   MisRate:0.00%    MPKI:0.00
PC:16ec8     Total:2382      MisBP:0   MisRate:0.00%    MPKI:0.00
PC:10f86     Total:1199      MisBP:0   MisRate:0.00%    MPKI:0.00
PC:146c4     Total:273      MisBP:0   MisRate:0.00%    MPKI:0.00
PC:29570     Total:10509      MisBP:0   MisRate:0.00%    MPKI:0.00
PC:14712     Total:1076      MisBP:0   MisRate:0.00%    MPKI:0.00
PC:186d2     Total:146      MisBP:0   MisRate:0.00%    MPKI:0.00
PC:10f98     Total:1172      MisBP:0   MisRate:0.00%    MPKI:0.00
PC:146d6     Total:114      MisBP:0   MisRate:0.00%    MPKI:0.00
PC:17c00     Total:6548      MisBP:0   MisRate:0.00%    MPKI:0.00
PC:1473e     Total:1      MisBP:0   MisRate:0.00%    MPKI:0.00
PC:16c12     Total:15      MisBP:0   MisRate:0.00%    MPKI:0.00
PC:13e94     Total:62258      MisBP:0   MisRate:0.00%    MPKI:0.00
PC:13ea8     Total:61860      MisBP:0   MisRate:0.00%    MPKI:0.00
PC:18ece     Total:30834      MisBP:0   MisRate:0.00%    MPKI:0.00
PC:13f52     Total:863      MisBP:0   MisRate:0.00%    MPKI:0.00
PC:17bfa     Total:7073      MisBP:0   MisRate:0.00%    MPKI:0.00
PC:13f54     Total:863      MisBP:0   MisRate:0.00%    MPKI:0.00
PC:18ed2     Total:444      MisBP:0   MisRate:0.00%    MPKI:0.00
PC:13f56     Total:863      MisBP:0   MisRate:0.00%    MPKI:0.00
PC:17bfe     Total:7219      MisBP:0   MisRate:0.00%    MPKI:0.00
PC:18ed4     Total:444      MisBP:0   MisRate:0.00%    MPKI:0.00
PC:13f58     Total:863      MisBP:0   MisRate:0.00%    MPKI:0.00
PC:13ea2     Total:61878      MisBP:0   MisRate:0.00%    MPKI:0.00
PC:13f5a     Total:863      MisBP:0   MisRate:0.00%    MPKI:0.00
PC:17c04     Total:6534      MisBP:0   MisRate:0.00%    MPKI:0.00
PC:18eda     Total:62      MisBP:0   MisRate:0.00%    MPKI:0.00
PC:13f5e     Total:1      MisBP:0   MisRate:0.00%    MPKI:0.00
PC:13f60     Total:1      MisBP:0   MisRate:0.00%    MPKI:0.00
PC:17c08     Total:6580      MisBP:0   MisRate:0.00%    MPKI:0.00
PC:1699e     Total:187      MisBP:0   MisRate:0.00%    MPKI:0.00
PC:18ede     Total:62      MisBP:0   MisRate:0.00%    MPKI:0.00
PC:13f62     Total:5      MisBP:0   MisRate:0.00%    MPKI:0.00
PC:18ee0     Total:2134      MisBP:0   MisRate:0.00%    MPKI:0.00
PC:13f64     Total:1      MisBP:0   MisRate:0.00%    MPKI:0.00
PC:13f66     Total:1      MisBP:0   MisRate:0.00%    MPKI:0.00
PC:29240     Total:234      MisBP:0   MisRate:0.00%    MPKI:0.00
PC:18ae0     Total:1      MisBP:0   MisRate:0.00%    MPKI:0.00
PC:137dc     Total:6      MisBP:0   MisRate:0.00%    MPKI:0.00
PC:297b4     Total:97      MisBP:0   MisRate:0.00%    MPKI:0.00
PC:17114     Total:7      MisBP:0   MisRate:0.00%    MPKI:0.00
PC:29252     Total:29      MisBP:0   MisRate:0.00%    MPKI:0.00
PC:17c20     Total:6117      MisBP:0   MisRate:0.00%    MPKI:0.00
PC:29660     Total:766      MisBP:0   MisRate:0.00%    MPKI:0.00
PC:29664     Total:766      MisBP:0   MisRate:0.00%    MPKI:0.00
PC:13bd4     Total:3890839      MisBP:0   MisRate:0.00%    MPKI:0.00
PC:18adc     Total:1      MisBP:0   MisRate:0.00%    MPKI:0.00
PC:29668     Total:766      MisBP:0   MisRate:0.00%    MPKI:0.00
PC:13bd8     Total:3886093      MisBP:0   MisRate:0.00%    MPKI:0.00
PC:17316     Total:196      MisBP:0   MisRate:0.00%    MPKI:0.00
PC:13828     Total:2      MisBP:0   MisRate:0.00%    MPKI:0.00
PC:187a4     Total:41      MisBP:0   MisRate:0.00%    MPKI:0.00
PC:18758     Total:11      MisBP:0   MisRate:0.00%    MPKI:0.00
PC:17876     Total:33      MisBP:0   MisRate:0.00%    MPKI:0.00
PC:13bda     Total:3884004      MisBP:0   MisRate:0.00%    MPKI:0.00
PC:2966c     Total:766      MisBP:0   MisRate:0.00%    MPKI:0.00
PC:13bdc     Total:3882183      MisBP:0   MisRate:0.00%    MPKI:0.00
PC:1731a     Total:196      MisBP:0   MisRate:0.00%    MPKI:0.00
PC:1382c     Total:2      MisBP:0   MisRate:0.00%    MPKI:0.00
PC:187a8     Total:41      MisBP:0   MisRate:0.00%    MPKI:0.00
PC:18ae4     Total:1      MisBP:0   MisRate:0.00%    MPKI:0.00
PC:29670     Total:766      MisBP:0   MisRate:0.00%    MPKI:0.00
PC:13be0     Total:3942939      MisBP:0   MisRate:0.00%    MPKI:0.00
PC:1731e     Total:196      MisBP:0   MisRate:0.00%    MPKI:0.00
PC:12b9a     Total:5      MisBP:0   MisRate:0.00%    MPKI:0.00
PC:13830     Total:2      MisBP:0   MisRate:0.00%    MPKI:0.00
PC:13564     Total:833      MisBP:0   MisRate:0.00%    MPKI:0.00
PC:18a2e     Total:3658084      MisBP:0   MisRate:0.00%    MPKI:0.00
PC:186d6     Total:143      MisBP:0   MisRate:0.00%    MPKI:0.00
PC:146da     Total:93      MisBP:0   MisRate:0.00%    MPKI:0.00
PC:17bec     Total:7405      MisBP:0   MisRate:0.00%    MPKI:0.00
PC:17bf0     Total:7398      MisBP:0   MisRate:0.00%    MPKI:0.00
PC:29644     Total:10419      MisBP:0   MisRate:0.00%    MPKI:0.00
PC:13bb4     Total:3920105      MisBP:0   MisRate:0.00%    MPKI:0.00
PC:172f2     Total:149      MisBP:0   MisRate:0.00%    MPKI:0.00
PC:17bf4     Total:7384      MisBP:0   MisRate:0.00%    MPKI:0.00
PC:13f50     Total:1      MisBP:0   MisRate:0.00%    MPKI:0.00
PC:17bf6     Total:7374      MisBP:0   MisRate:0.00%    MPKI:0.00
PC:361c8     Total:166      MisBP:0   MisRate:0.00%    MPKI:0.00
PC:184e0     Total:219439      MisBP:0   MisRate:0.00%    MPKI:0.00
PC:187ac     Total:41      MisBP:0   MisRate:0.00%    MPKI:0.00
PC:13bbe     Total:3915188      MisBP:0   MisRate:0.00%    MPKI:0.00
PC:13bc4     Total:3914553      MisBP:0   MisRate:0.00%    MPKI:0.00
PC:17302     Total:10      MisBP:0   MisRate:0.00%    MPKI:0.00
PC:29658     Total:767      MisBP:0   MisRate:0.00%    MPKI:0.00
PC:13bc8     Total:3914489      MisBP:0   MisRate:0.00%    MPKI:0.00
PC:17306     Total:10      MisBP:0   MisRate:0.00%    MPKI:0.00
PC:18b10     Total:1      MisBP:0   MisRate:0.00%    MPKI:0.00
PC:1016c     Total:44      MisBP:0   MisRate:0.00%    MPKI:0.00
PC:178a6     Total:20      MisBP:0   MisRate:0.00%    MPKI:0.00
PC:111c4     Total:908      MisBP:0   MisRate:0.00%    MPKI:0.00
PC:14618     Total:1      MisBP:0   MisRate:0.00%    MPKI:0.00
PC:16dd6     Total:2170      MisBP:0   MisRate:0.00%    MPKI:0.00
PC:1101e     Total:1095      MisBP:0   MisRate:0.00%    MPKI:0.00
PC:135b6     Total:71545      MisBP:0   MisRate:0.00%    MPKI:0.00
PC:36248     Total:3      MisBP:0   MisRate:0.00%    MPKI:0.00
PC:18560     Total:16135      MisBP:0   MisRate:0.00%    MPKI:0.00
PC:135e4     Total:948      MisBP:0   MisRate:0.00%    MPKI:0.00
PC:13e8e     Total:62332      MisBP:0   MisRate:0.00%    MPKI:0.00
PC:2938c     Total:244      MisBP:0   MisRate:0.00%    MPKI:0.00
PC:14702     Total:62      MisBP:0   MisRate:0.00%    MPKI:0.00
PC:16c22     Total:15      MisBP:0   MisRate:0.00%    MPKI:0.00
PC:169e8     Total:163      MisBP:0   MisRate:0.00%    MPKI:0.00
PC:36250     Total:3      MisBP:0   MisRate:0.00%    MPKI:0.00
PC:18568     Total:16004      MisBP:0   MisRate:0.00%    MPKI:0.00
PC:135ec     Total:947      MisBP:0   MisRate:0.00%    MPKI:0.00
PC:13e96     Total:62199      MisBP:0   MisRate:0.00%    MPKI:0.00
PC:3621a     Total:11      MisBP:0   MisRate:0.00%    MPKI:0.00
PC:18532     Total:1      MisBP:0   MisRate:0.00%    MPKI:0.00
PC:1788c     Total:20      MisBP:0   MisRate:0.00%    MPKI:0.00
PC:29394     Total:288      MisBP:0   MisRate:0.00%    MPKI:0.00
PC:1856c     Total:16003      MisBP:0   MisRate:0.00%    MPKI:0.00
PC:135f0     Total:947      MisBP:0   MisRate:0.00%    MPKI:0.00
PC:13e9a     Total:62119      MisBP:0   MisRate:0.00%    MPKI:0.00
PC:16ecc     Total:2382      MisBP:0   MisRate:0.00%    MPKI:0.00
PC:1470e     Total:1076      MisBP:0   MisRate:0.00%    MPKI:0.00
PC:137da     Total:6      MisBP:0   MisRate:0.00%    MPKI:0.00
PC:18756     Total:11      MisBP:0   MisRate:0.00%    MPKI:0.00
PC:1101c     Total:1097      MisBP:0   MisRate:0.00%    MPKI:0.00
PC:16c2e     Total:15      MisBP:0   MisRate:0.00%    MPKI:0.00
PC:3625c     Total:14      MisBP:0   MisRate:0.00%    MPKI:0.00
PC:18574     Total:15998      MisBP:0   MisRate:0.00%    MPKI:0.00
PC:135f8     Total:947      MisBP:0   MisRate:0.00%    MPKI:0.00
PC:1015c     Total:55      MisBP:0   MisRate:0.00%    MPKI:0.00
PC:18ae8     Total:1      MisBP:0   MisRate:0.00%    MPKI:0.00
PC:29674     Total:766      MisBP:0   MisRate:0.00%    MPKI:0.00
PC:17892     Total:1      MisBP:0   MisRate:0.00%    MPKI:0.00
PC:13be4     Total:7878731      MisBP:0   MisRate:0.00%    MPKI:0.00
PC:17322     Total:151      MisBP:0   MisRate:0.00%    MPKI:0.00
PC:12b9e     Total:5      MisBP:0   MisRate:0.00%    MPKI:0.00
PC:18aec     Total:46      MisBP:0   MisRate:0.00%    MPKI:0.00
PC:17882     Total:20      MisBP:0   MisRate:0.00%    MPKI:0.00
PC:111a0     Total:976      MisBP:0   MisRate:0.00%    MPKI:0.00
PC:145f4     Total:749      MisBP:0   MisRate:0.00%    MPKI:0.00
PC:16db2     Total:206      MisBP:0   MisRate:0.00%    MPKI:0.00
PC:29678     Total:766      MisBP:0   MisRate:0.00%    MPKI:0.00
PC:17896     Total:14      MisBP:0   MisRate:0.00%    MPKI:0.00
PC:29628     Total:10419      MisBP:0   MisRate:0.00%    MPKI:0.00
PC:13be8     Total:3937635      MisBP:0   MisRate:0.00%    MPKI:0.00
PC:17326     Total:153      MisBP:0   MisRate:0.00%    MPKI:0.00
PC:18af0     Total:46      MisBP:0   MisRate:0.00%    MPKI:0.00
PC:13bea     Total:3936878      MisBP:0   MisRate:0.00%    MPKI:0.00
PC:12ba4     Total:5      MisBP:0   MisRate:0.00%    MPKI:0.00
PC:187b6     Total:2      MisBP:0   MisRate:0.00%    MPKI:0.00
PC:29788     Total:744      MisBP:0   MisRate:0.00%    MPKI:0.00
PC:170e8     Total:1      MisBP:0   MisRate:0.00%    MPKI:0.00
PC:18af2     Total:46      MisBP:0   MisRate:0.00%    MPKI:0.00
PC:17888     Total:20      MisBP:0   MisRate:0.00%    MPKI:0.00
PC:13bee     Total:3934309      MisBP:0   MisRate:0.00%    MPKI:0.00
PC:2978c     Total:744      MisBP:0   MisRate:0.00%    MPKI:0.00
PC:18af6     Total:46      MisBP:0   MisRate:0.00%    MPKI:0.00
PC:16c1c     Total:15      MisBP:0   MisRate:0.00%    MPKI:0.00
PC:13658     Total:201      MisBP:0   MisRate:0.00%    MPKI:0.00
PC:10e9a     Total:95      MisBP:0   MisRate:0.00%    MPKI:0.00
PC:16aae     Total:18      MisBP:0   MisRate:0.00%    MPKI:0.00
PC:1365a     Total:200      MisBP:0   MisRate:0.00%    MPKI:0.00
PC:10e9c     Total:94      MisBP:0   MisRate:0.00%    MPKI:0.00
PC:16ab2     Total:18      MisBP:0   MisRate:0.00%    MPKI:0.00
PC:185da     Total:13999      MisBP:0   MisRate:0.00%    MPKI:0.00
PC:1365e     Total:990      MisBP:0   MisRate:0.00%    MPKI:0.00
PC:10ea0     Total:93      MisBP:0   MisRate:0.00%    MPKI:0.00
PC:16c0c     Total:15      MisBP:0   MisRate:0.00%    MPKI:0.00
PC:16c10     Total:15      MisBP:0   MisRate:0.00%    MPKI:0.00
PC:16c16     Total:15      MisBP:0   MisRate:0.00%    MPKI:0.00
PC:16c18     Total:15      MisBP:0   MisRate:0.00%    MPKI:0.00
PC:16c1a     Total:15      MisBP:0   MisRate:0.00%    MPKI:0.00
PC:185d4     Total:22002      MisBP:0   MisRate:0.00%    MPKI:0.00
PC:16c20     Total:15      MisBP:0   MisRate:0.00%    MPKI:0.00
PC:16c26     Total:15      MisBP:0   MisRate:0.00%    MPKI:0.00
PC:16c2a     Total:15      MisBP:0   MisRate:0.00%    MPKI:0.00
PC:16c6a     Total:25      MisBP:0   MisRate:0.00%    MPKI:0.00
PC:16c7e     Total:1496527      MisBP:0   MisRate:0.00%    MPKI:0.00
PC:17b84     Total:3395      MisBP:0   MisRate:0.00%    MPKI:0.00
PC:179d2     Total:19      MisBP:0   MisRate:0.00%    MPKI:0.00
PC:179d4     Total:19      MisBP:0   MisRate:0.00%    MPKI:0.00
PC:179d6     Total:19      MisBP:0   MisRate:0.00%    MPKI:0.00
PC:179da     Total:19      MisBP:0   MisRate:0.00%    MPKI:0.00
PC:179dc     Total:6      MisBP:0   MisRate:0.00%    MPKI:0.00
PC:179e0     Total:6      MisBP:0   MisRate:0.00%    MPKI:0.00
PC:179e2     Total:6      MisBP:0   MisRate:0.00%    MPKI:0.00
PC:17cfa     Total:1      MisBP:0   MisRate:0.00%    MPKI:0.00
PC:16a76     Total:105      MisBP:0   MisRate:0.00%    MPKI:0.00
PC:17ce0     Total:14      MisBP:0   MisRate:0.00%    MPKI:0.00
PC:16a78     Total:105      MisBP:0   MisRate:0.00%    MPKI:0.00
PC:16a7c     Total:103      MisBP:0   MisRate:0.00%    MPKI:0.00
PC:16a80     Total:99      MisBP:0   MisRate:0.00%    MPKI:0.00
PC:17cea     Total:14      MisBP:0   MisRate:0.00%    MPKI:0.00
PC:16a82     Total:99      MisBP:0   MisRate:0.00%    MPKI:0.00
PC:17cec     Total:1      MisBP:0   MisRate:0.00%    MPKI:0.00
PC:16a86     Total:99      MisBP:0   MisRate:0.00%    MPKI:0.00
PC:17cf0     Total:1      MisBP:0   MisRate:0.00%    MPKI:0.00
PC:16a8a     Total:99      MisBP:0   MisRate:0.00%    MPKI:0.00
PC:17cf4     Total:1      MisBP:0   MisRate:0.00%    MPKI:0.00
PC:16a8c     Total:99      MisBP:0   MisRate:0.00%    MPKI:0.00
PC:16a90     Total:99      MisBP:0   MisRate:0.00%    MPKI:0.00
PC:179e4     Total:6      MisBP:0   MisRate:0.00%    MPKI:0.00
PC:16a94     Total:99      MisBP:0   MisRate:0.00%    MPKI:0.00
PC:17cfe     Total:1      MisBP:0   MisRate:0.00%    MPKI:0.00
PC:16a96     Total:99      MisBP:0   MisRate:0.00%    MPKI:0.00
PC:16a9a     Total:93      MisBP:0   MisRate:0.00%    MPKI:0.00
PC:16a9c     Total:93      MisBP:0   MisRate:0.00%    MPKI:0.00
PC:16aa4     Total:24      MisBP:0   MisRate:0.00%    MPKI:0.00
PC:16aa6     Total:24      MisBP:0   MisRate:0.00%    MPKI:0.00
PC:185ce     Total:22007      MisBP:0   MisRate:0.00%    MPKI:0.00
PC:10e94     Total:99      MisBP:0   MisRate:0.00%    MPKI:0.00
PC:16aa8     Total:24      MisBP:0   MisRate:0.00%    MPKI:0.00
PC:16aaa     Total:24      MisBP:0   MisRate:0.00%    MPKI:0.00
PC:10e98     Total:95      MisBP:0   MisRate:0.00%    MPKI:0.00
PC:16aac     Total:23      MisBP:0   MisRate:0.00%    MPKI:0.00
PC:179b6     Total:30      MisBP:0   MisRate:0.00%    MPKI:0.00
PC:17a0c     Total:5      MisBP:0   MisRate:0.00%    MPKI:0.00
PC:17a0e     Total:5      MisBP:0   MisRate:0.00%    MPKI:0.00
PC:17a12     Total:10      MisBP:0   MisRate:0.00%    MPKI:0.00
PC:10230     Total:1      MisBP:0   MisRate:0.00%    MPKI:0.00
PC:1796a     Total:21      MisBP:0   MisRate:0.00%    MPKI:0.00
PC:1796c     Total:21      MisBP:0   MisRate:0.00%    MPKI:0.00
PC:1796e     Total:21      MisBP:0   MisRate:0.00%    MPKI:0.00
PC:17972     Total:21      MisBP:0   MisRate:0.00%    MPKI:0.00
PC:17974     Total:22      MisBP:0   MisRate:0.00%    MPKI:0.00
PC:17978     Total:22      MisBP:0   MisRate:0.00%    MPKI:0.00
PC:1797a     Total:22      MisBP:0   MisRate:0.00%    MPKI:0.00
PC:1797c     Total:22      MisBP:0   MisRate:0.00%    MPKI:0.00
PC:179ae     Total:38      MisBP:0   MisRate:0.00%    MPKI:0.00
PC:179b0     Total:38      MisBP:0   MisRate:0.00%    MPKI:0.00
PC:17a0a     Total:5      MisBP:0   MisRate:0.00%    MPKI:0.00
PC:179ba     Total:30      MisBP:0   MisRate:0.00%    MPKI:0.00
PC:179bc     Total:30      MisBP:0   MisRate:0.00%    MPKI:0.00
PC:179be     Total:28      MisBP:0   MisRate:0.00%    MPKI:0.00
PC:179c2     Total:28      MisBP:0   MisRate:0.00%    MPKI:0.00
PC:179c4     Total:28      MisBP:0   MisRate:0.00%    MPKI:0.00
PC:179c6     Total:28      MisBP:0   MisRate:0.00%    MPKI:0.00
PC:179cc     Total:14      MisBP:0   MisRate:0.00%    MPKI:0.00
PC:179ce     Total:1      MisBP:0   MisRate:0.00%    MPKI:0.00
PC:1797e     Total:17      MisBP:0   MisRate:0.00%    MPKI:0.00
PC:17982     Total:17      MisBP:0   MisRate:0.00%    MPKI:0.00
PC:17984     Total:17      MisBP:0   MisRate:0.00%    MPKI:0.00
PC:17988     Total:17      MisBP:0   MisRate:0.00%    MPKI:0.00
PC:1798a     Total:17      MisBP:0   MisRate:0.00%    MPKI:0.00
PC:17a26     Total:25      MisBP:0   MisRate:0.00%    MPKI:0.00
PC:179e6     Total:6      MisBP:0   MisRate:0.00%    MPKI:0.00
PC:179ea     Total:6      MisBP:0   MisRate:0.00%    MPKI:0.00
PC:179ec     Total:6      MisBP:0   MisRate:0.00%    MPKI:0.00
PC:179f0     Total:6      MisBP:0   MisRate:0.00%    MPKI:0.00
PC:179f2     Total:6      MisBP:0   MisRate:0.00%    MPKI:0.00
PC:179f4     Total:6      MisBP:0   MisRate:0.00%    MPKI:0.00
PC:179f6     Total:6      MisBP:0   MisRate:0.00%    MPKI:0.00
PC:179f8     Total:6      MisBP:0   MisRate:0.00%    MPKI:0.00
PC:17a16     Total:26      MisBP:0   MisRate:0.00%    MPKI:0.00
PC:17a18     Total:26      MisBP:0   MisRate:0.00%    MPKI:0.00
PC:17a1e     Total:26      MisBP:0   MisRate:0.00%    MPKI:0.00
PC:17a22     Total:25      MisBP:0   MisRate:0.00%    MPKI:0.00
PC:17a24     Total:25      MisBP:0   MisRate:0.00%    MPKI:0.00
PC:17cdc     Total:14      MisBP:0   MisRate:0.00%    MPKI:0.00
PC:17a2a     Total:25      MisBP:0   MisRate:0.00%    MPKI:0.00
PC:17a2c     Total:25      MisBP:0   MisRate:0.00%    MPKI:0.00
PC:17a2e     Total:25      MisBP:0   MisRate:0.00%    MPKI:0.00
PC:17a32     Total:10      MisBP:0   MisRate:0.00%    MPKI:0.00
PC:17a34     Total:1      MisBP:0   MisRate:0.00%    MPKI:0.00
PC:17a38     Total:1      MisBP:0   MisRate:0.00%    MPKI:0.00
PC:17a3a     Total:1      MisBP:0   MisRate:0.00%    MPKI:0.00
PC:17a3c     Total:1      MisBP:0   MisRate:0.00%    MPKI:0.00
PC:179fc     Total:5      MisBP:0   MisRate:0.00%    MPKI:0.00
PC:17a00     Total:5      MisBP:0   MisRate:0.00%    MPKI:0.00
PC:17a02     Total:5      MisBP:0   MisRate:0.00%    MPKI:0.00
PC:17a06     Total:5      MisBP:0   MisRate:0.00%    MPKI:0.00
PC:17a08     Total:5      MisBP:0   MisRate:0.00%    MPKI:0.00
PC:1878a     Total:31291      MisBP:0   MisRate:0.00%    MPKI:0.00
PC:29750     Total:745      MisBP:0   MisRate:0.00%    MPKI:0.00
PC:12b6c     Total:1040      MisBP:0   MisRate:0.00%    MPKI:0.00
PC:11044     Total:1027      MisBP:0   MisRate:0.00%    MPKI:0.00
PC:1877e     Total:26027      MisBP:0   MisRate:0.00%    MPKI:0.00
PC:29754     Total:745      MisBP:0   MisRate:0.00%    MPKI:0.00
PC:18abe     Total:3      MisBP:0   MisRate:0.00%    MPKI:0.00
PC:17854     Total:19      MisBP:0   MisRate:0.00%    MPKI:0.00
PC:13806     Total:2      MisBP:0   MisRate:0.00%    MPKI:0.00
PC:11048     Total:1027      MisBP:0   MisRate:0.00%    MPKI:0.00
PC:29758     Total:745      MisBP:0   MisRate:0.00%    MPKI:0.00
PC:2975c     Total:745      MisBP:0   MisRate:0.00%    MPKI:0.00
PC:18ac6     Total:1      MisBP:0   MisRate:0.00%    MPKI:0.00
PC:1380e     Total:2      MisBP:0   MisRate:0.00%    MPKI:0.00
PC:11050     Total:123      MisBP:0   MisRate:0.00%    MPKI:0.00
PC:1877a     Total:29019      MisBP:0   MisRate:0.00%    MPKI:0.00
PC:29760     Total:744      MisBP:0   MisRate:0.00%    MPKI:0.00
PC:13812     Total:2      MisBP:0   MisRate:0.00%    MPKI:0.00
PC:11054     Total:123      MisBP:0   MisRate:0.00%    MPKI:0.00
PC:1878e     Total:31291      MisBP:0   MisRate:0.00%    MPKI:0.00
PC:13832     Total:2      MisBP:0   MisRate:0.00%    MPKI:0.00
PC:187ae     Total:41      MisBP:0   MisRate:0.00%    MPKI:0.00
PC:29780     Total:744      MisBP:0   MisRate:0.00%    MPKI:0.00
PC:170e0     Total:1      MisBP:0   MisRate:0.00%    MPKI:0.00
PC:13836     Total:2      MisBP:0   MisRate:0.00%    MPKI:0.00
PC:187b2     Total:2      MisBP:0   MisRate:0.00%    MPKI:0.00
PC:29784     Total:744      MisBP:0   MisRate:0.00%    MPKI:0.00
PC:170e4     Total:1      MisBP:0   MisRate:0.00%    MPKI:0.00
PC:111a8     Total:969      MisBP:0   MisRate:0.00%    MPKI:0.00
PC:10ee4     Total:88      MisBP:0   MisRate:0.00%    MPKI:0.00
PC:1104c     Total:1024      MisBP:0   MisRate:0.00%    MPKI:0.00
PC:16c62     Total:25      MisBP:0   MisRate:0.00%    MPKI:0.00
PC:16ddc     Total:2170      MisBP:0   MisRate:0.00%    MPKI:0.00
PC:1461e     Total:1123      MisBP:0   MisRate:0.00%    MPKI:0.00
PC:1369e     Total:7      MisBP:0   MisRate:0.00%    MPKI:0.00
PC:1861a     Total:30479      MisBP:0   MisRate:0.00%    MPKI:0.00
PC:10ee0     Total:88      MisBP:0   MisRate:0.00%    MPKI:0.00
PC:16af2     Total:12      MisBP:0   MisRate:0.00%    MPKI:0.00
PC:136a0     Total:7      MisBP:0   MisRate:0.00%    MPKI:0.00
PC:10ee2     Total:88      MisBP:0   MisRate:0.00%    MPKI:0.00
PC:16af4     Total:12      MisBP:0   MisRate:0.00%    MPKI:0.00
PC:136a2     Total:7      MisBP:0   MisRate:0.00%    MPKI:0.00
PC:1861e     Total:30464      MisBP:0   MisRate:0.00%    MPKI:0.00
PC:145fc     Total:749      MisBP:0   MisRate:0.00%    MPKI:0.00
PC:16af6     Total:12      MisBP:0   MisRate:0.00%    MPKI:0.00
PC:18aa4     Total:1      MisBP:0   MisRate:0.00%    MPKI:0.00
PC:1783a     Total:25      MisBP:0   MisRate:0.00%    MPKI:0.00
PC:12b56     Total:1074      MisBP:0   MisRate:0.00%    MPKI:0.00
PC:18aa8     Total:1      MisBP:0   MisRate:0.00%    MPKI:0.00
PC:1783e     Total:25      MisBP:0   MisRate:0.00%    MPKI:0.00
PC:137f0     Total:5      MisBP:0   MisRate:0.00%    MPKI:0.00
PC:1876c     Total:11      MisBP:0   MisRate:0.00%    MPKI:0.00
PC:137f6     Total:5      MisBP:0   MisRate:0.00%    MPKI:0.00
PC:18772     Total:11      MisBP:0   MisRate:0.00%    MPKI:0.00
PC:2974c     Total:746      MisBP:0   MisRate:0.00%    MPKI:0.00
PC:11040     Total:1029      MisBP:0   MisRate:0.00%    MPKI:0.00
PC:137fe     Total:5      MisBP:0   MisRate:0.00%    MPKI:0.00
PC:17cc2     Total:40      MisBP:0   MisRate:0.00%    MPKI:0.00
PC:1355c     Total:833      MisBP:0   MisRate:0.00%    MPKI:0.00
PC:184e8     Total:3430925      MisBP:0   MisRate:0.00%    MPKI:0.00
PC:1356c     Total:824      MisBP:0   MisRate:0.00%    MPKI:0.00
PC:361e4     Total:124      MisBP:0   MisRate:0.00%    MPKI:0.00
PC:184fc     Total:3278      MisBP:0   MisRate:0.00%    MPKI:0.00
PC:13580     Total:812      MisBP:0   MisRate:0.00%    MPKI:0.00
PC:361e8     Total:124      MisBP:0   MisRate:0.00%    MPKI:0.00
PC:13584     Total:812      MisBP:0   MisRate:0.00%    MPKI:0.00
PC:13588     Total:812      MisBP:0   MisRate:0.00%    MPKI:0.00
PC:16a50     Total:121      MisBP:0   MisRate:0.00%    MPKI:0.00
PC:17cba     Total:28      MisBP:0   MisRate:0.00%    MPKI:0.00
PC:16a54     Total:121      MisBP:0   MisRate:0.00%    MPKI:0.00
PC:17cbe     Total:33      MisBP:0   MisRate:0.00%    MPKI:0.00
PC:16a58     Total:121      MisBP:0   MisRate:0.00%    MPKI:0.00
PC:184d8     Total:219817      MisBP:0   MisRate:0.00%    MPKI:0.00
PC:16a5a     Total:118      MisBP:0   MisRate:0.00%    MPKI:0.00
PC:17cc4     Total:40      MisBP:0   MisRate:0.00%    MPKI:0.00
PC:16a5e     Total:116      MisBP:0   MisRate:0.00%    MPKI:0.00
PC:16a62     Total:115      MisBP:0   MisRate:0.00%    MPKI:0.00
PC:16a64     Total:115      MisBP:0   MisRate:0.00%    MPKI:0.00
PC:17cce     Total:14      MisBP:0   MisRate:0.00%    MPKI:0.00
PC:16a68     Total:115      MisBP:0   MisRate:0.00%    MPKI:0.00
PC:17cd2     Total:14      MisBP:0   MisRate:0.00%    MPKI:0.00
PC:16a6c     Total:115      MisBP:0   MisRate:0.00%    MPKI:0.00
PC:17cd6     Total:14      MisBP:0   MisRate:0.00%    MPKI:0.00
PC:16a6e     Total:115      MisBP:0   MisRate:0.00%    MPKI:0.00
PC:17cd8     Total:14      MisBP:0   MisRate:0.00%    MPKI:0.00
PC:16a72     Total:115      MisBP:0   MisRate:0.00%    MPKI:0.00
PC:17108     Total:7      MisBP:0   MisRate:0.00%    MPKI:0.00
PC:16dba     Total:198      MisBP:0   MisRate:0.00%    MPKI:0.00
PC:18af8     Total:46      MisBP:0   MisRate:0.00%    MPKI:0.00
PC:10154     Total:996      MisBP:0   MisRate:0.00%    MPKI:0.00
PC:111ac     Total:958      MisBP:0   MisRate:0.00%    MPKI:0.00
PC:16dbe     Total:198      MisBP:0   MisRate:0.00%    MPKI:0.00
PC:18b08     Total:45      MisBP:0   MisRate:0.00%    MPKI:0.00
PC:10164     Total:55      MisBP:0   MisRate:0.00%    MPKI:0.00
PC:1789e     Total:14      MisBP:0   MisRate:0.00%    MPKI:0.00
PC:111bc     Total:955      MisBP:0   MisRate:0.00%    MPKI:0.00
PC:297a4     Total:98      MisBP:0   MisRate:0.00%    MPKI:0.00
PC:18b0e     Total:1      MisBP:0   MisRate:0.00%    MPKI:0.00
PC:178a4     Total:20      MisBP:0   MisRate:0.00%    MPKI:0.00
PC:297a8     Total:98      MisBP:0   MisRate:0.00%    MPKI:0.00
PC:17be8     Total:7429      MisBP:0   MisRate:0.00%    MPKI:0.00
PC:297ac     Total:195      MisBP:0   MisRate:0.00%    MPKI:0.00
PC:1710c     Total:7      MisBP:0   MisRate:0.00%    MPKI:0.00
PC:18b16     Total:1      MisBP:0   MisRate:0.00%    MPKI:0.00
PC:297b0     Total:194      MisBP:0   MisRate:0.00%    MPKI:0.00
PC:18b1a     Total:1      MisBP:0   MisRate:0.00%    MPKI:0.00
PC:178b0     Total:20      MisBP:0   MisRate:0.00%    MPKI:0.00
PC:18b20     Total:1      MisBP:0   MisRate:0.00%    MPKI:0.00
PC:1017c     Total:44      MisBP:0   MisRate:0.00%    MPKI:0.00
PC:178b6     Total:20      MisBP:0   MisRate:0.00%    MPKI:0.00
PC:111d4     Total:805      MisBP:0   MisRate:0.00%    MPKI:0.00
PC:16de6     Total:1770      MisBP:0   MisRate:0.00%    MPKI:0.00
PC:184cc     Total:225670      MisBP:0   MisRate:0.00%    MPKI:0.00
PC:13550     Total:14      MisBP:0   MisRate:0.00%    MPKI:0.00
PC:169f8     Total:154      MisBP:0   MisRate:0.00%    MPKI:0.00
PC:185a0     Total:15723      MisBP:0   MisRate:0.00%    MPKI:0.00
PC:13624     Total:109      MisBP:0   MisRate:0.00%    MPKI:0.00
PC:169b4     Total:177      MisBP:0   MisRate:0.00%    MPKI:0.00
PC:3621c     Total:10      MisBP:0   MisRate:0.00%    MPKI:0.00
PC:18534     Total:1      MisBP:0   MisRate:0.00%    MPKI:0.00
PC:135b8     Total:71495      MisBP:0   MisRate:0.00%    MPKI:0.00
PC:295fc     Total:10442      MisBP:0   MisRate:0.00%    MPKI:0.00
PC:18754     Total:11      MisBP:0   MisRate:0.00%    MPKI:0.00
PC:1101a     Total:1127      MisBP:0   MisRate:0.00%    MPKI:0.00
PC:16c2c     Total:15      MisBP:0   MisRate:0.00%    MPKI:0.00
PC:177cc     Total:19      MisBP:0   MisRate:0.00%    MPKI:0.00
PC:10fa4     Total:103      MisBP:0   MisRate:0.00%    MPKI:0.00
PC:29294     Total:1      MisBP:0   MisRate:0.00%    MPKI:0.00
PC:17c62     Total:3851      MisBP:0   MisRate:0.00%    MPKI:0.00
PC:29744     Total:746      MisBP:0   MisRate:0.00%    MPKI:0.00
PC:18a70     Total:18      MisBP:0   MisRate:0.00%    MPKI:0.00
PC:29258     Total:6      MisBP:0   MisRate:0.00%    MPKI:0.00
PC:17c26     Total:6132      MisBP:0   MisRate:0.00%    MPKI:0.00
PC:169bc     Total:177      MisBP:0   MisRate:0.00%    MPKI:0.00
PC:18a34     Total:3658082      MisBP:0   MisRate:0.00%    MPKI:0.00
PC:177ca     Total:19      MisBP:0   MisRate:0.00%    MPKI:0.00
PC:29584     Total:10502      MisBP:0   MisRate:0.00%    MPKI:0.00
PC:14726     Total:5      MisBP:0   MisRate:0.00%    MPKI:0.00
PC:16ee4     Total:73      MisBP:0   MisRate:0.00%    MPKI:0.00
PC:186dc     Total:143      MisBP:0   MisRate:0.00%    MPKI:0.00
PC:10fa2     Total:103      MisBP:0   MisRate:0.00%    MPKI:0.00
PC:16a1c     Total:140      MisBP:0   MisRate:0.00%    MPKI:0.00
PC:292b8     Total:1      MisBP:0   MisRate:0.00%    MPKI:0.00
PC:16a3a     Total:136      MisBP:0   MisRate:0.00%    MPKI:0.00
PC:176c2     Total:17      MisBP:0   MisRate:0.00%    MPKI:0.00
PC:2970c     Total:764      MisBP:0   MisRate:0.00%    MPKI:0.00
PC:18a76     Total:18      MisBP:0   MisRate:0.00%    MPKI:0.00
PC:1780c     Total:3      MisBP:0   MisRate:0.00%    MPKI:0.00
PC:17334     Total:1395      MisBP:0   MisRate:0.00%    MPKI:0.00
PC:17b92     Total:9213      MisBP:0   MisRate:0.00%    MPKI:0.00
PC:29268     Total:3      MisBP:0   MisRate:0.00%    MPKI:0.00
PC:17c36     Total:5659      MisBP:0   MisRate:0.00%    MPKI:0.00
PC:169cc     Total:166      MisBP:0   MisRate:0.00%    MPKI:0.00
PC:13bf2     Total:3933612      MisBP:0   MisRate:0.00%    MPKI:0.00
PC:17330     Total:152      MisBP:0   MisRate:0.00%    MPKI:0.00
PC:29790     Total:98      MisBP:0   MisRate:0.00%    MPKI:0.00
PC:18afa     Total:46      MisBP:0   MisRate:0.00%    MPKI:0.00
PC:17890     Total:8      MisBP:0   MisRate:0.00%    MPKI:0.00
PC:17c86     Total:7      MisBP:0   MisRate:0.00%    MPKI:0.00
PC:292d6     Total:5      MisBP:0   MisRate:0.00%    MPKI:0.00
PC:17ca4     Total:29      MisBP:0   MisRate:0.00%    MPKI:0.00
PC:17b8e     Total:9224      MisBP:0   MisRate:0.00%    MPKI:0.00
PC:18a40     Total:62      MisBP:0   MisRate:0.00%    MPKI:0.00
PC:177d6     Total:32      MisBP:0   MisRate:0.00%    MPKI:0.00
PC:29590     Total:10502      MisBP:0   MisRate:0.00%    MPKI:0.00
PC:186e8     Total:1486      MisBP:0   MisRate:0.00%    MPKI:0.00
PC:10fae     Total:1091      MisBP:0   MisRate:0.00%    MPKI:0.00
PC:18a38     Total:62      MisBP:0   MisRate:0.00%    MPKI:0.00
PC:177ce     Total:19      MisBP:0   MisRate:0.00%    MPKI:0.00
PC:18aac     Total:3      MisBP:0   MisRate:0.00%    MPKI:0.00
PC:17842     Total:20      MisBP:0   MisRate:0.00%    MPKI:0.00
PC:10228     Total:2      MisBP:0   MisRate:0.00%    MPKI:0.00
PC:16dda     Total:2170      MisBP:0   MisRate:0.00%    MPKI:0.00
PC:16a28     Total:140      MisBP:0   MisRate:0.00%    MPKI:0.00
PC:292c4     Total:1      MisBP:0   MisRate:0.00%    MPKI:0.00
PC:17c92     Total:35      MisBP:0   MisRate:0.00%    MPKI:0.00
PC:185a8     Total:15720      MisBP:0   MisRate:0.00%    MPKI:0.00
PC:1362c     Total:109      MisBP:0   MisRate:0.00%    MPKI:0.00
PC:29604     Total:10419      MisBP:0   MisRate:0.00%    MPKI:0.00
PC:137ec     Total:6      MisBP:0   MisRate:0.00%    MPKI:0.00
PC:29262     Total:3      MisBP:0   MisRate:0.00%    MPKI:0.00
PC:17c30     Total:6109      MisBP:0   MisRate:0.00%    MPKI:0.00
PC:18b14     Total:1      MisBP:0   MisRate:0.00%    MPKI:0.00
PC:10170     Total:44      MisBP:0   MisRate:0.00%    MPKI:0.00
PC:178aa     Total:20      MisBP:0   MisRate:0.00%    MPKI:0.00
PC:111c8     Total:937      MisBP:0   MisRate:0.00%    MPKI:0.00
PC:1461c     Total:1      MisBP:0   MisRate:0.00%    MPKI:0.00
PC:13ea0     Total:62002      MisBP:0   MisRate:0.00%    MPKI:0.00
PC:18a24     Total:3658075      MisBP:0   MisRate:0.00%    MPKI:0.00
PC:29574     Total:10509      MisBP:0   MisRate:0.00%    MPKI:0.00
PC:186cc     Total:5314      MisBP:0   MisRate:0.00%    MPKI:0.00
PC:10f92     Total:1198      MisBP:0   MisRate:0.00%    MPKI:0.00
PC:18b22     Total:1      MisBP:0   MisRate:0.00%    MPKI:0.00
PC:178b8     Total:20      MisBP:0   MisRate:0.00%    MPKI:0.00
PC:17c50     Total:4410      MisBP:0   MisRate:0.00%    MPKI:0.00
PC:169e6     Total:164      MisBP:0   MisRate:0.00%    MPKI:0.00
PC:296f4     Total:765      MisBP:0   MisRate:0.00%    MPKI:0.00
PC:101d8     Total:25      MisBP:0   MisRate:0.00%    MPKI:0.00
PC:177f4     Total:15      MisBP:0   MisRate:0.00%    MPKI:0.00
PC:13f08     Total:29      MisBP:0   MisRate:0.00%    MPKI:0.00
PC:16c66     Total:25      MisBP:0   MisRate:0.00%    MPKI:0.00
PC:18a6c     Total:18      MisBP:0   MisRate:0.00%    MPKI:0.00
PC:13620     Total:109      MisBP:0   MisRate:0.00%    MPKI:0.00
PC:169b0     Total:177      MisBP:0   MisRate:0.00%    MPKI:0.00
PC:295f8     Total:10442      MisBP:0   MisRate:0.00%    MPKI:0.00
PC:18750     Total:11      MisBP:0   MisRate:0.00%    MPKI:0.00
PC:11016     Total:1133      MisBP:0   MisRate:0.00%    MPKI:0.00
PC:16c28     Total:15      MisBP:0   MisRate:0.00%    MPKI:0.00
PC:29256     Total:8      MisBP:0   MisRate:0.00%    MPKI:0.00
PC:17c24     Total:6135      MisBP:0   MisRate:0.00%    MPKI:0.00
PC:18a32     Total:3658083      MisBP:0   MisRate:0.00%    MPKI:0.00
PC:177c8     Total:19      MisBP:0   MisRate:0.00%    MPKI:0.00
PC:186da     Total:143      MisBP:0   MisRate:0.00%    MPKI:0.00
PC:10fa0     Total:103      MisBP:0   MisRate:0.00%    MPKI:0.00
PC:146de     Total:93      MisBP:0   MisRate:0.00%    MPKI:0.00
PC:1e53e     Total:245      MisBP:0   MisRate:0.00%    MPKI:0.00
PC:17802     Total:12      MisBP:0   MisRate:0.00%    MPKI:0.00
PC:145dc     Total:7490      MisBP:0   MisRate:0.00%    MPKI:0.00
PC:16ab0     Total:18      MisBP:0   MisRate:0.00%    MPKI:0.00
PC:10e9e     Total:94      MisBP:0   MisRate:0.00%    MPKI:0.00
PC:111e0     Total:79      MisBP:0   MisRate:0.00%    MPKI:0.00
PC:295f4     Total:10442      MisBP:0   MisRate:0.00%    MPKI:0.00
PC:18a68     Total:18      MisBP:0   MisRate:0.00%    MPKI:0.00
PC:177fe     Total:12      MisBP:0   MisRate:0.00%    MPKI:0.00
PC:16c08     Total:12      MisBP:0   MisRate:0.00%    MPKI:0.00
PC:36244     Total:3      MisBP:0   MisRate:0.00%    MPKI:0.00
PC:135e0     Total:948      MisBP:0   MisRate:0.00%    MPKI:0.00
PC:18b1c     Total:1      MisBP:0   MisRate:0.00%    MPKI:0.00
PC:111d0     Total:818      MisBP:0   MisRate:0.00%    MPKI:0.00
PC:17b9e     Total:9054      MisBP:0   MisRate:0.00%    MPKI:0.00
PC:17c68     Total:3827      MisBP:0   MisRate:0.00%    MPKI:0.00
PC:13eac     Total:61853      MisBP:0   MisRate:0.00%    MPKI:0.00
PC:292a8     Total:1      MisBP:0   MisRate:0.00%    MPKI:0.00
PC:16a0c     Total:147      MisBP:0   MisRate:0.00%    MPKI:0.00
PC:18a84     Total:17      MisBP:0   MisRate:0.00%    MPKI:0.00
PC:16a4e     Total:122      MisBP:0   MisRate:0.00%    MPKI:0.00
PC:17cb8     Total:28      MisBP:0   MisRate:0.00%    MPKI:0.00
PC:13efc     Total:1109      MisBP:0   MisRate:0.00%    MPKI:0.00
PC:17ba2     Total:8943      MisBP:0   MisRate:0.00%    MPKI:0.00
PC:18a80     Total:17      MisBP:0   MisRate:0.00%    MPKI:0.00
PC:17816     Total:3      MisBP:0   MisRate:0.00%    MPKI:0.00
PC:292cc     Total:1      MisBP:0   MisRate:0.00%    MPKI:0.00
PC:17cb4     Total:28      MisBP:0   MisRate:0.00%    MPKI:0.00
PC:13ef8     Total:1109      MisBP:0   MisRate:0.00%    MPKI:0.00
PC:2929a     Total:1      MisBP:0   MisRate:0.00%    MPKI:0.00
PC:1464e     Total:14      MisBP:0   MisRate:0.00%    MPKI:0.00
PC:16e0c     Total:715      MisBP:0   MisRate:0.00%    MPKI:0.00
PC:1e546     Total:46      MisBP:0   MisRate:0.00%    MPKI:0.00
PC:29734     Total:759      MisBP:0   MisRate:0.00%    MPKI:0.00
PC:12b50     Total:1074      MisBP:0   MisRate:0.00%    MPKI:0.00
PC:18a94     Total:17      MisBP:0   MisRate:0.00%    MPKI:0.00
PC:1782a     Total:11      MisBP:0   MisRate:0.00%    MPKI:0.00
PC:1699c     Total:187      MisBP:0   MisRate:0.00%    MPKI:0.00
PC:10fb6     Total:1087      MisBP:0   MisRate:0.00%    MPKI:0.00
PC:18a90     Total:17      MisBP:0   MisRate:0.00%    MPKI:0.00
PC:17826     Total:11      MisBP:0   MisRate:0.00%    MPKI:0.00
PC:13eb2     Total:62882      MisBP:0   MisRate:0.00%    MPKI:0.00
PC:13608     Total:889      MisBP:0   MisRate:0.00%    MPKI:0.00
PC:1103a     Total:1055      MisBP:0   MisRate:0.00%    MPKI:0.00
PC:296cc     Total:765      MisBP:0   MisRate:0.00%    MPKI:0.00
PC:296c8     Total:765      MisBP:0   MisRate:0.00%    MPKI:0.00
PC:29728     Total:760      MisBP:0   MisRate:0.00%    MPKI:0.00
PC:18a92     Total:17      MisBP:0   MisRate:0.00%    MPKI:0.00
PC:13eb4     Total:62827      MisBP:0   MisRate:0.00%    MPKI:0.00
PC:185dc     Total:13999      MisBP:0   MisRate:0.00%    MPKI:0.00
PC:10ea2     Total:93      MisBP:0   MisRate:0.00%    MPKI:0.00
PC:13660     Total:990      MisBP:0   MisRate:0.00%    MPKI:0.00
PC:145e0     Total:749      MisBP:0   MisRate:0.00%    MPKI:0.00
PC:16d9e     Total:215      MisBP:0   MisRate:0.00%    MPKI:0.00
PC:17bb0     Total:9038      MisBP:0   MisRate:0.00%    MPKI:0.00
PC:18ab0     Total:3      MisBP:0   MisRate:0.00%    MPKI:0.00
PC:12b62     Total:1055      MisBP:0   MisRate:0.00%    MPKI:0.00
PC:16998     Total:1894      MisBP:0   MisRate:0.00%    MPKI:0.00
PC:18774     Total:11      MisBP:0   MisRate:0.00%    MPKI:0.00
PC:29724     Total:762      MisBP:0   MisRate:0.00%    MPKI:0.00
PC:184ca     Total:225693      MisBP:0   MisRate:0.00%    MPKI:0.00
PC:361b2     Total:1679      MisBP:0   MisRate:0.00%    MPKI:0.00
PC:18a8e     Total:17      MisBP:0   MisRate:0.00%    MPKI:0.00
PC:17824     Total:11      MisBP:0   MisRate:0.00%    MPKI:0.00
PC:13f06     Total:29      MisBP:0   MisRate:0.00%    MPKI:0.00
PC:17bac     Total:9052      MisBP:0   MisRate:0.00%    MPKI:0.00
PC:29720     Total:762      MisBP:0   MisRate:0.00%    MPKI:0.00
PC:10204     Total:19      MisBP:0   MisRate:0.00%    MPKI:0.00
PC:18a8a     Total:17      MisBP:0   MisRate:0.00%    MPKI:0.00
PC:17820     Total:1      MisBP:0   MisRate:0.00%    MPKI:0.00
PC:169fe     Total:148      MisBP:0   MisRate:0.00%    MPKI:0.00
PC:135f4     Total:947      MisBP:0   MisRate:0.00%    MPKI:0.00
PC:184d6     Total:220138      MisBP:0   MisRate:0.00%    MPKI:0.00
PC:1355a     Total:833      MisBP:0   MisRate:0.00%    MPKI:0.00
PC:185cc     Total:22008      MisBP:0   MisRate:0.00%    MPKI:0.00
PC:13650     Total:66      MisBP:0   MisRate:0.00%    MPKI:0.00
PC:16d8e     Total:211      MisBP:0   MisRate:0.00%    MPKI:0.00
PC:17ba0     Total:9037      MisBP:0   MisRate:0.00%    MPKI:0.00
PC:18aa0     Total:17      MisBP:0   MisRate:0.00%    MPKI:0.00
PC:18764     Total:11      MisBP:0   MisRate:0.00%    MPKI:0.00
PC:18a7c     Total:18      MisBP:0   MisRate:0.00%    MPKI:0.00
PC:169f0     Total:163      MisBP:0   MisRate:0.00%    MPKI:0.00
PC:2928c     Total:1      MisBP:0   MisRate:0.00%    MPKI:0.00
PC:17c5a     Total:3865      MisBP:0   MisRate:0.00%    MPKI:0.00
PC:36258     Total:6      MisBP:0   MisRate:0.00%    MPKI:0.00
PC:18570     Total:15998      MisBP:0   MisRate:0.00%    MPKI:0.00
PC:361be     Total:166      MisBP:0   MisRate:0.00%    MPKI:0.00
PC:16a46     Total:122      MisBP:0   MisRate:0.00%    MPKI:0.00
PC:17b9a     Total:9198      MisBP:0   MisRate:0.00%    MPKI:0.00
PC:1464a     Total:2      MisBP:0   MisRate:0.00%    MPKI:0.00
PC:16e08     Total:714      MisBP:0   MisRate:0.00%    MPKI:0.00
PC:1e542     Total:47      MisBP:0   MisRate:0.00%    MPKI:0.00
PC:176c6     Total:17      MisBP:0   MisRate:0.00%    MPKI:0.00
PC:29730     Total:759      MisBP:0   MisRate:0.00%    MPKI:0.00
PC:12b4c     Total:1074      MisBP:0   MisRate:0.00%    MPKI:0.00
PC:18a78     Total:18      MisBP:0   MisRate:0.00%    MPKI:0.00
PC:13ef0     Total:1109      MisBP:0   MisRate:0.00%    MPKI:0.00
PC:17b96     Total:9199      MisBP:0   MisRate:0.00%    MPKI:0.00
PC:14646     Total:2      MisBP:0   MisRate:0.00%    MPKI:0.00
PC:16e04     Total:714      MisBP:0   MisRate:0.00%    MPKI:0.00
PC:17ba6     Total:8939      MisBP:0   MisRate:0.00%    MPKI:0.00
PC:10fb2     Total:1091      MisBP:0   MisRate:0.00%    MPKI:0.00
PC:18a1a     Total:3658109      MisBP:0   MisRate:0.00%    MPKI:0.00
PC:177b0     Total:26      MisBP:0   MisRate:0.00%    MPKI:0.00
PC:18a8c     Total:17      MisBP:0   MisRate:0.00%    MPKI:0.00
PC:13f04     Total:29      MisBP:0   MisRate:0.00%    MPKI:0.00
PC:17baa     Total:9072      MisBP:0   MisRate:0.00%    MPKI:0.00
PC:29740     Total:746      MisBP:0   MisRate:0.00%    MPKI:0.00
PC:10224     Total:6      MisBP:0   MisRate:0.00%    MPKI:0.00
PC:11034     Total:1055      MisBP:0   MisRate:0.00%    MPKI:0.00
PC:137f2     Total:5      MisBP:0   MisRate:0.00%    MPKI:0.00
PC:1876e     Total:11      MisBP:0   MisRate:0.00%    MPKI:0.00
PC:18a88     Total:17      MisBP:0   MisRate:0.00%    MPKI:0.00
PC:13f00     Total:1053      MisBP:0   MisRate:0.00%    MPKI:0.00
PC:18ab2     Total:3      MisBP:0   MisRate:0.00%    MPKI:0.00
PC:18aa6     Total:1      MisBP:0   MisRate:0.00%    MPKI:0.00
PC:13bc2     Total:3914971      MisBP:0   MisRate:0.00%    MPKI:0.00
PC:169b8     Total:177      MisBP:0   MisRate:0.00%    MPKI:0.00
PC:36220     Total:10      MisBP:0   MisRate:0.00%    MPKI:0.00
PC:18538     Total:1      MisBP:0   MisRate:0.00%    MPKI:0.00
PC:135bc     Total:71482      MisBP:0   MisRate:0.00%    MPKI:0.00
PC:18a44     Total:62      MisBP:0   MisRate:0.00%    MPKI:0.00
PC:29594     Total:10502      MisBP:0   MisRate:0.00%    MPKI:0.00
PC:292a6     Total:1      MisBP:0   MisRate:0.00%    MPKI:0.00
PC:17c74     Total:1799      MisBP:0   MisRate:0.00%    MPKI:0.00
PC:29718     Total:763      MisBP:0   MisRate:0.00%    MPKI:0.00
PC:18a82     Total:17      MisBP:0   MisRate:0.00%    MPKI:0.00
PC:17818     Total:3      MisBP:0   MisRate:0.00%    MPKI:0.00
PC:1789a     Total:14      MisBP:0   MisRate:0.00%    MPKI:0.00
PC:10fb0     Total:1091      MisBP:0   MisRate:0.00%    MPKI:0.00
PC:29246     Total:30      MisBP:0   MisRate:0.00%    MPKI:0.00
PC:17c14     Total:6571      MisBP:0   MisRate:0.00%    MPKI:0.00
PC:2924a     Total:29      MisBP:0   MisRate:0.00%    MPKI:0.00
PC:17c18     Total:6569      MisBP:0   MisRate:0.00%    MPKI:0.00
PC:111b0     Total:957      MisBP:0   MisRate:0.00%    MPKI:0.00
PC:18afc     Total:46      MisBP:0   MisRate:0.00%    MPKI:0.00
PC:2924e     Total:29      MisBP:0   MisRate:0.00%    MPKI:0.00
PC:17c1c     Total:6139      MisBP:0   MisRate:0.00%    MPKI:0.00
PC:111b8     Total:955      MisBP:0   MisRate:0.00%    MPKI:0.00
PC:1460c     Total:42      MisBP:0   MisRate:0.00%    MPKI:0.00
PC:16dca     Total:2187      MisBP:0   MisRate:0.00%    MPKI:0.00
PC:18b04     Total:45      MisBP:0   MisRate:0.00%    MPKI:0.00
PC:10160     Total:55      MisBP:0   MisRate:0.00%    MPKI:0.00
PC:146ee     Total:958      MisBP:0   MisRate:0.00%    MPKI:0.00
PC:18b0c     Total:1      MisBP:0   MisRate:0.00%    MPKI:0.00
PC:111d8     Total:804      MisBP:0   MisRate:0.00%    MPKI:0.00
PC:16dea     Total:7118      MisBP:0   MisRate:0.00%    MPKI:0.00
PC:18b24     Total:1      MisBP:0   MisRate:0.00%    MPKI:0.00
PC:10180     Total:37      MisBP:0   MisRate:0.00%    MPKI:0.00
PC:178ba     Total:20      MisBP:0   MisRate:0.00%    MPKI:0.00
PC:111dc     Total:803      MisBP:0   MisRate:0.00%    MPKI:0.00
PC:16dee     Total:7107      MisBP:0   MisRate:0.00%    MPKI:0.00
PC:18b28     Total:3      MisBP:0   MisRate:0.00%    MPKI:0.00
PC:13ee2     Total:806      MisBP:0   MisRate:0.00%    MPKI:0.00
PC:17b88     Total:9227      MisBP:0   MisRate:0.00%    MPKI:0.00
PC:185e0     Total:13998      MisBP:0   MisRate:0.00%    MPKI:0.00
PC:10ea6     Total:93      MisBP:0   MisRate:0.00%    MPKI:0.00
PC:17308     Total:2746      MisBP:0   MisRate:0.00%    MPKI:0.00
PC:3622c     Total:12      MisBP:0   MisRate:0.00%    MPKI:0.00
PC:135c8     Total:59      MisBP:0   MisRate:0.00%    MPKI:0.00
PC:2956c     Total:10509      MisBP:0   MisRate:0.00%    MPKI:0.00
PC:10f8a     Total:1198      MisBP:0   MisRate:0.00%    MPKI:0.00
PC:146c8     Total:271      MisBP:0   MisRate:0.00%    MPKI:0.00
PC:17bda     Total:8202      MisBP:0   MisRate:0.00%    MPKI:0.00
PC:1857c     Total:15925      MisBP:0   MisRate:0.00%    MPKI:0.00
PC:13600     Total:883      MisBP:0   MisRate:0.00%    MPKI:0.00
PC:13eaa     Total:61859      MisBP:0   MisRate:0.00%    MPKI:0.00
PC:16a32     Total:138      MisBP:0   MisRate:0.00%    MPKI:0.00
PC:292ce     Total:1      MisBP:0   MisRate:0.00%    MPKI:0.00
PC:17c9c     Total:35      MisBP:0   MisRate:0.00%    MPKI:0.00
PC:16c3e     Total:14      MisBP:0   MisRate:0.00%    MPKI:0.00
PC:13664     Total:987      MisBP:0   MisRate:0.00%    MPKI:0.00
PC:361d8     Total:124      MisBP:0   MisRate:0.00%    MPKI:0.00
PC:13574     Total:824      MisBP:0   MisRate:0.00%    MPKI:0.00
PC:13bce     Total:3896037      MisBP:0   MisRate:0.00%    MPKI:0.00
PC:1730c     Total:1373      MisBP:0   MisRate:0.00%    MPKI:0.00
PC:184f4     Total:3251983      MisBP:0   MisRate:0.00%    MPKI:0.00
PC:13578     Total:824      MisBP:0   MisRate:0.00%    MPKI:0.00
PC:146cc     Total:116      MisBP:0   MisRate:0.00%    MPKI:0.00
PC:10f8e     Total:1198      MisBP:0   MisRate:0.00%    MPKI:0.00
PC:13bb2     Total:3921482      MisBP:0   MisRate:0.00%    MPKI:0.00
PC:172f0     Total:149      MisBP:0   MisRate:0.00%    MPKI:0.00
PC:18a22     Total:3658100      MisBP:0   MisRate:0.00%    MPKI:0.00
PC:177b8     Total:26      MisBP:0   MisRate:0.00%    MPKI:0.00
PC:16eac     Total:16      MisBP:0   MisRate:0.00%    MPKI:0.00
PC:18eb6     Total:467      MisBP:0   MisRate:0.00%    MPKI:0.00
PC:13f26     Total:176      MisBP:0   MisRate:0.00%    MPKI:0.00
PC:17bcc     Total:8243      MisBP:0   MisRate:0.00%    MPKI:0.00
PC:18acc     Total:1      MisBP:0   MisRate:0.00%    MPKI:0.00
PC:12b7e     Total:7      MisBP:0   MisRate:0.00%    MPKI:0.00
PC:18a16     Total:3658069      MisBP:0   MisRate:0.00%    MPKI:0.00
PC:177ac     Total:26      MisBP:0   MisRate:0.00%    MPKI:0.00
PC:186be     Total:671      MisBP:0   MisRate:0.00%    MPKI:0.00
PC:10f84     Total:1199      MisBP:0   MisRate:0.00%    MPKI:0.00
PC:16e80     Total:16      MisBP:0   MisRate:0.00%    MPKI:0.00
PC:17bd4     Total:8219      MisBP:0   MisRate:0.00%    MPKI:0.00
PC:18eae     Total:467      MisBP:0   MisRate:0.00%    MPKI:0.00
PC:13f32     Total:1      MisBP:0   MisRate:0.00%    MPKI:0.00
PC:17bd8     Total:8209      MisBP:0   MisRate:0.00%    MPKI:0.00
PC:17bde     Total:7455      MisBP:0   MisRate:0.00%    MPKI:0.00
PC:18ea2     Total:65      MisBP:0   MisRate:0.00%    MPKI:0.00
PC:13f3a     Total:1      MisBP:0   MisRate:0.00%    MPKI:0.00
PC:17be0     Total:7454      MisBP:0   MisRate:0.00%    MPKI:0.00
PC:16eb0     Total:55      MisBP:0   MisRate:0.00%    MPKI:0.00
PC:146f2     Total:945      MisBP:0   MisRate:0.00%    MPKI:0.00
PC:186ee     Total:3218      MisBP:0   MisRate:0.00%    MPKI:0.00
PC:10fb4     Total:1090      MisBP:0   MisRate:0.00%    MPKI:0.00
PC:186ce     Total:5311      MisBP:0   MisRate:0.00%    MPKI:0.00
PC:10f94     Total:1197      MisBP:0   MisRate:0.00%    MPKI:0.00
PC:146d2     Total:116      MisBP:0   MisRate:0.00%    MPKI:0.00
PC:13f3e     Total:1      MisBP:0   MisRate:0.00%    MPKI:0.00
PC:17be4     Total:7453      MisBP:0   MisRate:0.00%    MPKI:0.00
PC:18ebe     Total:30885      MisBP:0   MisRate:0.00%    MPKI:0.00
PC:13f42     Total:1      MisBP:0   MisRate:0.00%    MPKI:0.00
PC:17bbc     Total:8821      MisBP:0   MisRate:0.00%    MPKI:0.00
PC:11190     Total:6900      MisBP:0   MisRate:0.00%    MPKI:0.00
PC:145e4     Total:749      MisBP:0   MisRate:0.00%    MPKI:0.00
PC:16da2     Total:215      MisBP:0   MisRate:0.00%    MPKI:0.00
PC:17bb4     Total:9027      MisBP:0   MisRate:0.00%    MPKI:0.00
PC:18ab4     Total:3      MisBP:0   MisRate:0.00%    MPKI:0.00
PC:1784a     Total:20      MisBP:0   MisRate:0.00%    MPKI:0.00
PC:13f12     Total:176      MisBP:0   MisRate:0.00%    MPKI:0.00
PC:17bb8     Total:8857      MisBP:0   MisRate:0.00%    MPKI:0.00
PC:18ab8     Total:3      MisBP:0   MisRate:0.00%    MPKI:0.00
PC:1784e     Total:20      MisBP:0   MisRate:0.00%    MPKI:0.00
PC:13800     Total:2      MisBP:0   MisRate:0.00%    MPKI:0.00
PC:11042     Total:1028      MisBP:0   MisRate:0.00%    MPKI:0.00
PC:1877c     Total:29018      MisBP:0   MisRate:0.00%    MPKI:0.00
PC:1dbee     Total:2      MisBP:0   MisRate:0.00%    MPKI:0.00
PC:18abc     Total:3      MisBP:0   MisRate:0.00%    MPKI:0.00
PC:17852     Total:20      MisBP:0   MisRate:0.00%    MPKI:0.00
PC:186aa     Total:503      MisBP:0   MisRate:0.00%    MPKI:0.00
PC:10f70     Total:6486      MisBP:0   MisRate:0.00%    MPKI:0.00
PC:17bc0     Total:8279      MisBP:0   MisRate:0.00%    MPKI:0.00
PC:13f22     Total:176      MisBP:0   MisRate:0.00%    MPKI:0.00
PC:17bc8     Total:8262      MisBP:0   MisRate:0.00%    MPKI:0.00
PC:18ac8     Total:1      MisBP:0   MisRate:0.00%    MPKI:0.00
PC:1785e     Total:19      MisBP:0   MisRate:0.00%    MPKI:0.00
PC:186b6     Total:2146      MisBP:0   MisRate:0.00%    MPKI:0.00
PC:10f7c     Total:1222      MisBP:0   MisRate:0.00%    MPKI:0.00
PC:16e78     Total:223      MisBP:0   MisRate:0.00%    MPKI:0.00
PC:146ba     Total:481      MisBP:0   MisRate:0.00%    MPKI:0.00
PC:146aa     Total:567      MisBP:0   MisRate:0.00%    MPKI:0.00
PC:1853c     Total:1      MisBP:0   MisRate:0.00%    MPKI:0.00
PC:135c0     Total:70996      MisBP:0   MisRate:0.00%    MPKI:0.00
PC:29598     Total:10502      MisBP:0   MisRate:0.00%    MPKI:0.00
PC:2926e     Total:3      MisBP:0   MisRate:0.00%    MPKI:0.00
PC:17c3c     Total:5575      MisBP:0   MisRate:0.00%    MPKI:0.00
PC:169d2     Total:166      MisBP:0   MisRate:0.00%    MPKI:0.00
PC:18a4a     Total:62      MisBP:0   MisRate:0.00%    MPKI:0.00
PC:36226     Total:10      MisBP:0   MisRate:0.00%    MPKI:0.00
PC:135c2     Total:70992      MisBP:0   MisRate:0.00%    MPKI:0.00
PC:293a0     Total:288      MisBP:0   MisRate:0.00%    MPKI:0.00
PC:184d2     Total:225625      MisBP:0   MisRate:0.00%    MPKI:0.00
PC:361ba     Total:501      MisBP:0   MisRate:0.00%    MPKI:0.00
PC:13556     Total:833      MisBP:0   MisRate:0.00%    MPKI:0.00
PC:1e5a2     Total:11      MisBP:0   MisRate:0.00%    MPKI:0.00
PC:296e0     Total:765      MisBP:0   MisRate:0.00%    MPKI:0.00
PC:186f2     Total:1608      MisBP:0   MisRate:0.00%    MPKI:0.00
PC:10fb8     Total:1087      MisBP:0   MisRate:0.00%    MPKI:0.00
PC:146f6     Total:945      MisBP:0   MisRate:0.00%    MPKI:0.00
PC:18a4c     Total:62      MisBP:0   MisRate:0.00%    MPKI:0.00
PC:177e2     Total:19      MisBP:0   MisRate:0.00%    MPKI:0.00
PC:2959c     Total:10502      MisBP:0   MisRate:0.00%    MPKI:0.00
PC:186f4     Total:1608      MisBP:0   MisRate:0.00%    MPKI:0.00
PC:10fba     Total:4256      MisBP:0   MisRate:0.00%    MPKI:0.00
PC:1464c     Total:2      MisBP:0   MisRate:0.00%    MPKI:0.00
PC:1e544     Total:47      MisBP:0   MisRate:0.00%    MPKI:0.00
PC:176c8     Total:17      MisBP:0   MisRate:0.00%    MPKI:0.00
PC:1103e     Total:1053      MisBP:0   MisRate:0.00%    MPKI:0.00
PC:137fc     Total:5      MisBP:0   MisRate:0.00%    MPKI:0.00
PC:2958c     Total:10502      MisBP:0   MisRate:0.00%    MPKI:0.00
PC:17848     Total:20      MisBP:0   MisRate:0.00%    MPKI:0.00
PC:11020     Total:1095      MisBP:0   MisRate:0.00%    MPKI:0.00
PC:16c32     Total:14      MisBP:0   MisRate:0.00%    MPKI:0.00
PC:296a8     Total:765      MisBP:0   MisRate:0.00%    MPKI:0.00
PC:18272     Total:1      MisBP:0   MisRate:0.00%    MPKI:0.00
PC:18a12     Total:3658011      MisBP:0   MisRate:0.00%    MPKI:0.00
PC:10f80     Total:1199      MisBP:0   MisRate:0.00%    MPKI:0.00
PC:17bd0     Total:8222      MisBP:0   MisRate:0.00%    MPKI:0.00
PC:29260     Total:3      MisBP:0   MisRate:0.00%    MPKI:0.00
PC:17c2e     Total:6120      MisBP:0   MisRate:0.00%    MPKI:0.00
PC:169c4     Total:167      MisBP:0   MisRate:0.00%    MPKI:0.00
PC:18a3c     Total:62      MisBP:0   MisRate:0.00%    MPKI:0.00
PC:177d2     Total:24      MisBP:0   MisRate:0.00%    MPKI:0.00
PC:18a9c     Total:17      MisBP:0   MisRate:0.00%    MPKI:0.00
PC:186e4     Total:1486      MisBP:0   MisRate:0.00%    MPKI:0.00
PC:10faa     Total:1091      MisBP:0   MisRate:0.00%    MPKI:0.00
PC:146e8     Total:981      MisBP:0   MisRate:0.00%    MPKI:0.00
PC:18a98     Total:17      MisBP:0   MisRate:0.00%    MPKI:0.00
PC:29280     Total:1      MisBP:0   MisRate:0.00%    MPKI:0.00
PC:17c4e     Total:4414      MisBP:0   MisRate:0.00%    MPKI:0.00
PC:18a5c     Total:62      MisBP:0   MisRate:0.00%    MPKI:0.00
PC:36238     Total:7      MisBP:0   MisRate:0.00%    MPKI:0.00
PC:18550     Total:16140      MisBP:0   MisRate:0.00%    MPKI:0.00
PC:135d4     Total:949      MisBP:0   MisRate:0.00%    MPKI:0.00
PC:17c3a     Total:5639      MisBP:0   MisRate:0.00%    MPKI:0.00
PC:18a48     Total:62      MisBP:0   MisRate:0.00%    MPKI:0.00
PC:177de     Total:19      MisBP:0   MisRate:0.00%    MPKI:0.00
PC:18558     Total:16140      MisBP:0   MisRate:0.00%    MPKI:0.00
PC:177ee     Total:19      MisBP:0   MisRate:0.00%    MPKI:0.00
PC:36234     Total:7      MisBP:0   MisRate:0.00%    MPKI:0.00
PC:135d0     Total:949      MisBP:0   MisRate:0.00%    MPKI:0.00
PC:18a60     Total:18      MisBP:0   MisRate:0.00%    MPKI:0.00
PC:1472c     Total:5      MisBP:0   MisRate:0.00%    MPKI:0.00
PC:3623c     Total:7      MisBP:0   MisRate:0.00%    MPKI:0.00
PC:18554     Total:16140      MisBP:0   MisRate:0.00%    MPKI:0.00
PC:135d8     Total:949      MisBP:0   MisRate:0.00%    MPKI:0.00
PC:29288     Total:1      MisBP:0   MisRate:0.00%    MPKI:0.00
PC:17c56     Total:3865      MisBP:0   MisRate:0.00%    MPKI:0.00
PC:169ec     Total:163      MisBP:0   MisRate:0.00%    MPKI:0.00
PC:18a64     Total:18      MisBP:0   MisRate:0.00%    MPKI:0.00
PC:14730     Total:2      MisBP:0   MisRate:0.00%    MPKI:0.00
PC:36240     Total:4      MisBP:0   MisRate:0.00%    MPKI:0.00
PC:18a58     Total:62      MisBP:0   MisRate:0.00%    MPKI:0.00
PC:135dc     Total:949      MisBP:0   MisRate:0.00%    MPKI:0.00
PC:29298     Total:1      MisBP:0   MisRate:0.00%    MPKI:0.00
PC:17c66     Total:3849      MisBP:0   MisRate:0.00%    MPKI:0.00
PC:169fc     Total:153      MisBP:0   MisRate:0.00%    MPKI:0.00
PC:18a74     Total:18      MisBP:0   MisRate:0.00%    MPKI:0.00
PC:29640     Total:10419      MisBP:0   MisRate:0.00%    MPKI:0.00
PC:1381c     Total:2      MisBP:0   MisRate:0.00%    MPKI:0.00
PC:18798     Total:33239      MisBP:0   MisRate:0.00%    MPKI:0.00
PC:1105e     Total:998      MisBP:0   MisRate:0.00%    MPKI:0.00
PC:16c70     Total:9      MisBP:0   MisRate:0.00%    MPKI:0.00
PC:16a30     Total:140      MisBP:0   MisRate:0.00%    MPKI:0.00
PC:13ede     Total:806      MisBP:0   MisRate:0.00%    MPKI:0.00
PC:13634     Total:50      MisBP:0   MisRate:0.00%    MPKI:0.00
PC:29278     Total:2      MisBP:0   MisRate:0.00%    MPKI:0.00
PC:17832     Total:15      MisBP:0   MisRate:0.00%    MPKI:0.00
PC:11026     Total:1090      MisBP:0   MisRate:0.00%    MPKI:0.00
PC:137e4     Total:6      MisBP:0   MisRate:0.00%    MPKI:0.00
PC:18760     Total:11      MisBP:0   MisRate:0.00%    MPKI:0.00
PC:29272     Total:3      MisBP:0   MisRate:0.00%    MPKI:0.00
PC:17c40     Total:4384      MisBP:0   MisRate:0.00%    MPKI:0.00
PC:169d6     Total:165      MisBP:0   MisRate:0.00%    MPKI:0.00
PC:18a4e     Total:62      MisBP:0   MisRate:0.00%    MPKI:0.00
PC:177e4     Total:19      MisBP:0   MisRate:0.00%    MPKI:0.00
PC:29274     Total:6      MisBP:0   MisRate:0.00%    MPKI:0.00
PC:17c42     Total:4384      MisBP:0   MisRate:0.00%    MPKI:0.00
PC:18a50     Total:62      MisBP:0   MisRate:0.00%    MPKI:0.00
PC:177e6     Total:19      MisBP:0   MisRate:0.00%    MPKI:0.00
PC:1798c     Total:17      MisBP:0   MisRate:0.00%    MPKI:0.00
PC:17c46     Total:4399      MisBP:0   MisRate:0.00%    MPKI:0.00
PC:18a54     Total:62      MisBP:0   MisRate:0.00%    MPKI:0.00
PC:177ea     Total:19      MisBP:0   MisRate:0.00%    MPKI:0.00
PC:169c8     Total:167      MisBP:0   MisRate:0.00%    MPKI:0.00
PC:296ec     Total:765      MisBP:0   MisRate:0.00%    MPKI:0.00
PC:36230     Total:7      MisBP:0   MisRate:0.00%    MPKI:0.00
PC:135cc     Total:949      MisBP:0   MisRate:0.00%    MPKI:0.00
PC:17c48     Total:4397      MisBP:0   MisRate:0.00%    MPKI:0.00
PC:169de     Total:165      MisBP:0   MisRate:0.00%    MPKI:0.00
PC:18a56     Total:62      MisBP:0   MisRate:0.00%    MPKI:0.00
PC:177ec     Total:19      MisBP:0   MisRate:0.00%    MPKI:0.00
PC:1e5ae     Total:10      MisBP:0   MisRate:0.00%    MPKI:0.00
PC:16e74     Total:193      MisBP:0   MisRate:0.00%    MPKI:0.00
PC:17464     Total:26      MisBP:0   MisRate:0.00%    MPKI:0.00
PC:1743a     Total:24      MisBP:0   MisRate:0.00%    MPKI:0.00
PC:1743e     Total:24      MisBP:0   MisRate:0.00%    MPKI:0.00
PC:17444     Total:9      MisBP:0   MisRate:0.00%    MPKI:0.00
PC:17446     Total:164      MisBP:0   MisRate:0.00%    MPKI:0.00
PC:17448     Total:164      MisBP:0   MisRate:0.00%    MPKI:0.00
PC:1744a     Total:164      MisBP:0   MisRate:0.00%    MPKI:0.00
PC:1744e     Total:164      MisBP:0   MisRate:0.00%    MPKI:0.00
PC:17450     Total:25      MisBP:0   MisRate:0.00%    MPKI:0.00
PC:17454     Total:26      MisBP:0   MisRate:0.00%    MPKI:0.00
PC:17456     Total:26      MisBP:0   MisRate:0.00%    MPKI:0.00
PC:17458     Total:26      MisBP:0   MisRate:0.00%    MPKI:0.00
PC:1745a     Total:26      MisBP:0   MisRate:0.00%    MPKI:0.00
PC:1745e     Total:26      MisBP:0   MisRate:0.00%    MPKI:0.00
PC:17460     Total:26      MisBP:0   MisRate:0.00%    MPKI:0.00
PC:17436     Total:24      MisBP:0   MisRate:0.00%    MPKI:0.00
PC:17466     Total:26      MisBP:0   MisRate:0.00%    MPKI:0.00
PC:17468     Total:26      MisBP:0   MisRate:0.00%    MPKI:0.00
PC:292b2     Total:1      MisBP:0   MisRate:0.00%    MPKI:0.00
PC:17c80     Total:7      MisBP:0   MisRate:0.00%    MPKI:0.00
PC:292c0     Total:1      MisBP:0   MisRate:0.00%    MPKI:0.00
PC:17c8e     Total:35      MisBP:0   MisRate:0.00%    MPKI:0.00
PC:292ca     Total:1      MisBP:0   MisRate:0.00%    MPKI:0.00
PC:17c98     Total:35      MisBP:0   MisRate:0.00%    MPKI:0.00
PC:292d0     Total:1      MisBP:0   MisRate:0.00%    MPKI:0.00
PC:17c9e     Total:29      MisBP:0   MisRate:0.00%    MPKI:0.00
PC:292d4     Total:1      MisBP:0   MisRate:0.00%    MPKI:0.00
PC:17ca2     Total:29      MisBP:0   MisRate:0.00%    MPKI:0.00
PC:17ca8     Total:29      MisBP:0   MisRate:0.00%    MPKI:0.00
PC:173f0     Total:2      MisBP:0   MisRate:0.00%    MPKI:0.00
PC:173ca     Total:1641      MisBP:0   MisRate:0.00%    MPKI:0.00
PC:173d0     Total:26      MisBP:0   MisRate:0.00%    MPKI:0.00
PC:173d2     Total:26      MisBP:0   MisRate:0.00%    MPKI:0.00
PC:173d4     Total:26      MisBP:0   MisRate:0.00%    MPKI:0.00
PC:173d8     Total:26      MisBP:0   MisRate:0.00%    MPKI:0.00
PC:173da     Total:26      MisBP:0   MisRate:0.00%    MPKI:0.00
PC:173dc     Total:26      MisBP:0   MisRate:0.00%    MPKI:0.00
PC:173de     Total:26      MisBP:0   MisRate:0.00%    MPKI:0.00
PC:173e0     Total:26      MisBP:0   MisRate:0.00%    MPKI:0.00
PC:173e4     Total:26      MisBP:0   MisRate:0.00%    MPKI:0.00
PC:173e6     Total:2      MisBP:0   MisRate:0.00%    MPKI:0.00
PC:173ea     Total:2      MisBP:0   MisRate:0.00%    MPKI:0.00
PC:173ec     Total:2      MisBP:0   MisRate:0.00%    MPKI:0.00
PC:173ee     Total:2      MisBP:0   MisRate:0.00%    MPKI:0.00
PC:17cca     Total:14      MisBP:0   MisRate:0.00%    MPKI:0.00
PC:173f4     Total:2      MisBP:0   MisRate:0.00%    MPKI:0.00
PC:173f6     Total:2      MisBP:0   MisRate:0.00%    MPKI:0.00
PC:173fa     Total:2      MisBP:0   MisRate:0.00%    MPKI:0.00
PC:173fc     Total:2      MisBP:0   MisRate:0.00%    MPKI:0.00
PC:173fe     Total:2      MisBP:0   MisRate:0.00%    MPKI:0.00
PC:1741c     Total:26      MisBP:0   MisRate:0.00%    MPKI:0.00
PC:17420     Total:26      MisBP:0   MisRate:0.00%    MPKI:0.00
PC:17422     Total:26      MisBP:0   MisRate:0.00%    MPKI:0.00
PC:17428     Total:26      MisBP:0   MisRate:0.00%    MPKI:0.00
PC:1742c     Total:26      MisBP:0   MisRate:0.00%    MPKI:0.00
PC:1742e     Total:26      MisBP:0   MisRate:0.00%    MPKI:0.00
PC:17430     Total:26      MisBP:0   MisRate:0.00%    MPKI:0.00
PC:17434     Total:24      MisBP:0   MisRate:0.00%    MPKI:0.00
PC:18738     Total:22      MisBP:0   MisRate:0.00%    MPKI:0.00
PC:17b7e     Total:19679      MisBP:0   MisRate:0.00%    MPKI:0.00
PC:17b82     Total:3007      MisBP:0   MisRate:0.00%    MPKI:0.00
PC:1871a     Total:29976      MisBP:0   MisRate:0.00%    MPKI:0.00
PC:174b0     Total:1296534      MisBP:0   MisRate:0.00%    MPKI:0.00
PC:1871c     Total:29976      MisBP:0   MisRate:0.00%    MPKI:0.00
PC:18720     Total:59952      MisBP:0   MisRate:0.00%    MPKI:0.00
PC:174b6     Total:1296172      MisBP:0   MisRate:0.00%    MPKI:0.00
PC:18724     Total:29976      MisBP:0   MisRate:0.00%    MPKI:0.00
PC:18726     Total:29976      MisBP:0   MisRate:0.00%    MPKI:0.00
PC:18728     Total:29976      MisBP:0   MisRate:0.00%    MPKI:0.00
PC:1872e     Total:22      MisBP:0   MisRate:0.00%    MPKI:0.00
PC:18732     Total:22      MisBP:0   MisRate:0.00%    MPKI:0.00
PC:18734     Total:22      MisBP:0   MisRate:0.00%    MPKI:0.00
PC:18736     Total:22      MisBP:0   MisRate:0.00%    MPKI:0.00
PC:17b7a     Total:19679      MisBP:0   MisRate:0.00%    MPKI:0.00
PC:1873a     Total:22      MisBP:0   MisRate:0.00%    MPKI:0.00
PC:137c0     Total:863      MisBP:0   MisRate:0.00%    MPKI:0.00
PC:1873c     Total:22      MisBP:0   MisRate:0.00%    MPKI:0.00
PC:137c2     Total:863      MisBP:0   MisRate:0.00%    MPKI:0.00
PC:1873e     Total:80      MisBP:0   MisRate:0.00%    MPKI:0.00
PC:17b40     Total:4112      MisBP:0   MisRate:0.00%    MPKI:0.00
PC:17b44     Total:4112      MisBP:0   MisRate:0.00%    MPKI:0.00
PC:17b48     Total:4112      MisBP:0   MisRate:0.00%    MPKI:0.00
PC:17b4a     Total:4112      MisBP:0   MisRate:0.00%    MPKI:0.00
PC:17b4e     Total:4112      MisBP:0   MisRate:0.00%    MPKI:0.00
PC:17b50     Total:4112      MisBP:0   MisRate:0.00%    MPKI:0.00
PC:17b52     Total:4112      MisBP:0   MisRate:0.00%    MPKI:0.00
PC:17b54     Total:4112      MisBP:0   MisRate:0.00%    MPKI:0.00
PC:17b3a     Total:4408      MisBP:0   MisRate:0.00%    MPKI:0.00
PC:17cd0     Total:14      MisBP:0   MisRate:0.00%    MPKI:0.00
PC:17cde     Total:14      MisBP:0   MisRate:0.00%    MPKI:0.00
PC:17ce4     Total:14      MisBP:0   MisRate:0.00%    MPKI:0.00
PC:17ce8     Total:14      MisBP:0   MisRate:0.00%    MPKI:0.00
PC:17cf2     Total:1      MisBP:0   MisRate:0.00%    MPKI:0.00
PC:17cf8     Total:1      MisBP:0   MisRate:0.00%    MPKI:0.00
PC:12bb6     Total:4      MisBP:0   MisRate:0.00%    MPKI:0.00
PC:17b32     Total:4405      MisBP:0   MisRate:0.00%    MPKI:0.00
PC:12bb8     Total:4      MisBP:0   MisRate:0.00%    MPKI:0.00
PC:17b34     Total:4411      MisBP:0   MisRate:0.00%    MPKI:0.00
PC:12bbc     Total:1      MisBP:0   MisRate:0.00%    MPKI:0.00
PC:17b38     Total:4413      MisBP:0   MisRate:0.00%    MPKI:0.00
PC:12bbe     Total:1      MisBP:0   MisRate:0.00%    MPKI:0.00
PC:173c8     Total:1641      MisBP:0   MisRate:0.00%    MPKI:0.00
PC:17cac     Total:28      MisBP:0   MisRate:0.00%    MPKI:0.00
PC:292e4     Total:30      MisBP:0   MisRate:0.00%    MPKI:0.00
PC:17cb2     Total:28      MisBP:0   MisRate:0.00%    MPKI:0.00
PC:17cb6     Total:28      MisBP:0   MisRate:0.00%    MPKI:0.00
PC:17b3c     Total:4407      MisBP:0   MisRate:0.00%    MPKI:0.00
PC:17b3e     Total:4407      MisBP:0   MisRate:0.00%    MPKI:0.00
PC:17b5e     Total:45114      MisBP:0   MisRate:0.00%    MPKI:0.00
PC:17b60     Total:45114      MisBP:0   MisRate:0.00%    MPKI:0.00
PC:17b66     Total:43018      MisBP:0   MisRate:0.00%    MPKI:0.00
PC:17b6a     Total:43017      MisBP:0   MisRate:0.00%    MPKI:0.00
PC:17b6c     Total:43017      MisBP:0   MisRate:0.00%    MPKI:0.00
PC:17b70     Total:43016      MisBP:0   MisRate:0.00%    MPKI:0.00
PC:17b72     Total:43016      MisBP:0   MisRate:0.00%    MPKI:0.00
PC:172c0     Total:10      MisBP:0   MisRate:0.00%    MPKI:0.00
PC:172b0     Total:11      MisBP:0   MisRate:0.00%    MPKI:0.00
PC:1359e     Total:62690      MisBP:0   MisRate:0.00%    MPKI:0.00
PC:1851a     Total:2      MisBP:0   MisRate:0.00%    MPKI:0.00
PC:172b2     Total:11      MisBP:0   MisRate:0.00%    MPKI:0.00
PC:36204     Total:12      MisBP:0   MisRate:0.00%    MPKI:0.00
PC:135a0     Total:62667      MisBP:0   MisRate:0.00%    MPKI:0.00
PC:1851c     Total:2      MisBP:0   MisRate:0.00%    MPKI:0.00
PC:172b6     Total:11      MisBP:0   MisRate:0.00%    MPKI:0.00
PC:172ba     Total:11      MisBP:0   MisRate:0.00%    MPKI:0.00
PC:135a8     Total:70487      MisBP:0   MisRate:0.00%    MPKI:0.00
PC:18524     Total:2      MisBP:0   MisRate:0.00%    MPKI:0.00
PC:172bc     Total:11      MisBP:0   MisRate:0.00%    MPKI:0.00
PC:3620e     Total:11      MisBP:0   MisRate:0.00%    MPKI:0.00
PC:18526     Total:2      MisBP:0   MisRate:0.00%    MPKI:0.00
PC:172ae     Total:11      MisBP:0   MisRate:0.00%    MPKI:0.00
PC:135ae     Total:71633      MisBP:0   MisRate:0.00%    MPKI:0.00
PC:1852a     Total:2      MisBP:0   MisRate:0.00%    MPKI:0.00
PC:172c2     Total:10      MisBP:0   MisRate:0.00%    MPKI:0.00
PC:172c4     Total:10      MisBP:0   MisRate:0.00%    MPKI:0.00
PC:172c6     Total:10      MisBP:0   MisRate:0.00%    MPKI:0.00
PC:172c8     Total:10      MisBP:0   MisRate:0.00%    MPKI:0.00
PC:172cc     Total:15      MisBP:0   MisRate:0.00%    MPKI:0.00
PC:172fe     Total:10      MisBP:0   MisRate:0.00%    MPKI:0.00
PC:17310     Total:12      MisBP:0   MisRate:0.00%    MPKI:0.00
PC:17314     Total:12      MisBP:0   MisRate:0.00%    MPKI:0.00
PC:1732a     Total:153      MisBP:0   MisRate:0.00%    MPKI:0.00
PC:1732e     Total:153      MisBP:0   MisRate:0.00%    MPKI:0.00
PC:17338     Total:1395      MisBP:0   MisRate:0.00%    MPKI:0.00
PC:361fc     Total:115      MisBP:0   MisRate:0.00%    MPKI:0.00
PC:361ee     Total:116      MisBP:0   MisRate:0.00%    MPKI:0.00
PC:1358a     Total:812      MisBP:0   MisRate:0.00%    MPKI:0.00
PC:18506     Total:564      MisBP:0   MisRate:0.00%    MPKI:0.00
PC:1729e     Total:12      MisBP:0   MisRate:0.00%    MPKI:0.00
PC:1358c     Total:63355      MisBP:0   MisRate:0.00%    MPKI:0.00
PC:18508     Total:564      MisBP:0   MisRate:0.00%    MPKI:0.00
PC:172a0     Total:12      MisBP:0   MisRate:0.00%    MPKI:0.00
PC:172a4     Total:12      MisBP:0   MisRate:0.00%    MPKI:0.00
PC:172a6     Total:12      MisBP:0   MisRate:0.00%    MPKI:0.00
PC:361f8     Total:116      MisBP:0   MisRate:0.00%    MPKI:0.00
PC:13594     Total:63332      MisBP:0   MisRate:0.00%    MPKI:0.00
PC:18510     Total:206119      MisBP:0   MisRate:0.00%    MPKI:0.00
PC:172aa     Total:12      MisBP:0   MisRate:0.00%    MPKI:0.00
PC:1733e     Total:157      MisBP:0   MisRate:0.00%    MPKI:0.00
PC:18514     Total:206081      MisBP:0   MisRate:0.00%    MPKI:0.00
PC:172ac     Total:12      MisBP:0   MisRate:0.00%    MPKI:0.00
PC:18516     Total:205888      MisBP:0   MisRate:0.00%    MPKI:0.00
PC:172d0     Total:147      MisBP:0   MisRate:0.00%    MPKI:0.00
PC:172d2     Total:147      MisBP:0   MisRate:0.00%    MPKI:0.00
PC:172d8     Total:156      MisBP:0   MisRate:0.00%    MPKI:0.00
PC:172dc     Total:156      MisBP:0   MisRate:0.00%    MPKI:0.00
PC:172de     Total:156      MisBP:0   MisRate:0.00%    MPKI:0.00
PC:172e2     Total:156      MisBP:0   MisRate:0.00%    MPKI:0.00
PC:172e6     Total:156      MisBP:0   MisRate:0.00%    MPKI:0.00
PC:172ea     Total:149      MisBP:0   MisRate:0.00%    MPKI:0.00
PC:172f4     Total:149      MisBP:0   MisRate:0.00%    MPKI:0.00
PC:172f8     Total:149      MisBP:0   MisRate:0.00%    MPKI:0.00
PC:17352     Total:156      MisBP:0   MisRate:0.00%    MPKI:0.00
PC:36206     Total:12      MisBP:0   MisRate:0.00%    MPKI:0.00
PC:1851e     Total:2      MisBP:0   MisRate:0.00%    MPKI:0.00
PC:3620a     Total:11      MisBP:0   MisRate:0.00%    MPKI:0.00
PC:135a6     Total:62386      MisBP:0   MisRate:0.00%    MPKI:0.00
PC:18522     Total:2      MisBP:0   MisRate:0.00%    MPKI:0.00
PC:36210     Total:11      MisBP:0   MisRate:0.00%    MPKI:0.00
PC:18528     Total:2      MisBP:0   MisRate:0.00%    MPKI:0.00
PC:17340     Total:152      MisBP:0   MisRate:0.00%    MPKI:0.00
PC:17342     Total:152      MisBP:0   MisRate:0.00%    MPKI:0.00
PC:17344     Total:152      MisBP:0   MisRate:0.00%    MPKI:0.00
PC:17348     Total:152      MisBP:0   MisRate:0.00%    MPKI:0.00
PC:1734a     Total:156      MisBP:0   MisRate:0.00%    MPKI:0.00
PC:1734e     Total:156      MisBP:0   MisRate:0.00%    MPKI:0.00
PC:17350     Total:156      MisBP:0   MisRate:0.00%    MPKI:0.00
PC:18512     Total:206110      MisBP:0   MisRate:0.00%    MPKI:0.00
PC:17354     Total:152      MisBP:0   MisRate:0.00%    MPKI:0.00
PC:17356     Total:152      MisBP:0   MisRate:0.00%    MPKI:0.00
PC:1735a     Total:152      MisBP:0   MisRate:0.00%    MPKI:0.00
PC:1735e     Total:152      MisBP:0   MisRate:0.00%    MPKI:0.00
PC:17360     Total:148      MisBP:0   MisRate:0.00%    MPKI:0.00
PC:17364     Total:148      MisBP:0   MisRate:0.00%    MPKI:0.00
PC:17366     Total:148      MisBP:0   MisRate:0.00%    MPKI:0.00
PC:17368     Total:148      MisBP:0   MisRate:0.00%    MPKI:0.00
PC:1736a     Total:138      MisBP:0   MisRate:0.00%    MPKI:0.00
PC:1736c     Total:138      MisBP:0   MisRate:0.00%    MPKI:0.00
PC:17370     Total:143      MisBP:0   MisRate:0.00%    MPKI:0.00
PC:173c0     Total:584      MisBP:0   MisRate:0.00%    MPKI:0.00
PC:173c4     Total:584      MisBP:0   MisRate:0.00%    MPKI:0.00
PC:173a8     Total:20      MisBP:0   MisRate:0.00%    MPKI:0.00
PC:17374     Total:1411      MisBP:0   MisRate:0.00%    MPKI:0.00
PC:17376     Total:1411      MisBP:0   MisRate:0.00%    MPKI:0.00
PC:1737c     Total:1377      MisBP:0   MisRate:0.00%    MPKI:0.00
PC:17380     Total:1218      MisBP:0   MisRate:0.00%    MPKI:0.00
PC:17382     Total:1218      MisBP:0   MisRate:0.00%    MPKI:0.00
PC:17386     Total:1218      MisBP:0   MisRate:0.00%    MPKI:0.00
PC:17388     Total:1218      MisBP:0   MisRate:0.00%    MPKI:0.00
PC:17390     Total:1382      MisBP:0   MisRate:0.00%    MPKI:0.00
PC:17394     Total:1382      MisBP:0   MisRate:0.00%    MPKI:0.00
PC:1739a     Total:148      MisBP:0   MisRate:0.00%    MPKI:0.00
PC:1739c     Total:218      MisBP:0   MisRate:0.00%    MPKI:0.00
PC:173a0     Total:218      MisBP:0   MisRate:0.00%    MPKI:0.00
PC:173a6     Total:20      MisBP:0   MisRate:0.00%    MPKI:0.00
PC:17b56     Total:4054      MisBP:0   MisRate:0.00%    MPKI:0.00
PC:173aa     Total:20      MisBP:0   MisRate:0.00%    MPKI:0.00
PC:173ae     Total:20      MisBP:0   MisRate:0.00%    MPKI:0.00
PC:173b0     Total:20      MisBP:0   MisRate:0.00%    MPKI:0.00
PC:173b4     Total:3272      MisBP:0   MisRate:0.00%    MPKI:0.00
PC:173b8     Total:1636      MisBP:0   MisRate:0.00%    MPKI:0.00
PC:173be     Total:665      MisBP:0   MisRate:0.00%    MPKI:0.00
PC:361ea     Total:121      MisBP:0   MisRate:0.00%    MPKI:0.00
PC:13586     Total:812      MisBP:0   MisRate:0.00%    MPKI:0.00
PC:18502     Total:564      MisBP:0   MisRate:0.00%    MPKI:0.00
PC:361f4     Total:116      MisBP:0   MisRate:0.00%    MPKI:0.00
PC:1850c     Total:564      MisBP:0   MisRate:0.00%    MPKI:0.00
PC:361fa     Total:116      MisBP:0   MisRate:0.00%    MPKI:0.00
PC:13596     Total:63320      MisBP:0   MisRate:0.00%    MPKI:0.00
PC:1748c     Total:169      MisBP:0   MisRate:0.00%    MPKI:0.00
PC:16ee2     Total:73      MisBP:0   MisRate:0.00%    MPKI:0.00
PC:16ee6     Total:73      MisBP:0   MisRate:0.00%    MPKI:0.00
PC:14734     Total:2      MisBP:0   MisRate:0.00%    MPKI:0.00
PC:16ef2     Total:56      MisBP:0   MisRate:0.00%    MPKI:0.00
PC:1746a     Total:25      MisBP:0   MisRate:0.00%    MPKI:0.00
PC:1746c     Total:25      MisBP:0   MisRate:0.00%    MPKI:0.00
PC:17470     Total:25      MisBP:0   MisRate:0.00%    MPKI:0.00
PC:17474     Total:25      MisBP:0   MisRate:0.00%    MPKI:0.00
PC:17476     Total:25      MisBP:0   MisRate:0.00%    MPKI:0.00
PC:1747a     Total:25      MisBP:0   MisRate:0.00%    MPKI:0.00
PC:1747c     Total:25      MisBP:0   MisRate:0.00%    MPKI:0.00
PC:1747e     Total:25      MisBP:0   MisRate:0.00%    MPKI:0.00
PC:17486     Total:169      MisBP:0   MisRate:0.00%    MPKI:0.00
PC:1748a     Total:169      MisBP:0   MisRate:0.00%    MPKI:0.00
PC:14724     Total:5      MisBP:0   MisRate:0.00%    MPKI:0.00
PC:17492     Total:165      MisBP:0   MisRate:0.00%    MPKI:0.00
PC:17496     Total:165      MisBP:0   MisRate:0.00%    MPKI:0.00
PC:17498     Total:164      MisBP:0   MisRate:0.00%    MPKI:0.00
PC:1749c     Total:164      MisBP:0   MisRate:0.00%    MPKI:0.00
PC:174a0     Total:147      MisBP:0   MisRate:0.00%    MPKI:0.00
PC:174a2     Total:147      MisBP:0   MisRate:0.00%    MPKI:0.00
PC:174a4     Total:147      MisBP:0   MisRate:0.00%    MPKI:0.00
PC:174a8     Total:147      MisBP:0   MisRate:0.00%    MPKI:0.00
PC:174aa     Total:146      MisBP:0   MisRate:0.00%    MPKI:0.00
PC:174ac     Total:1297022      MisBP:0   MisRate:0.00%    MPKI:0.00
PC:174ae     Total:1296881      MisBP:0   MisRate:0.00%    MPKI:0.00
PC:174b4     Total:1296555      MisBP:0   MisRate:0.00%    MPKI:0.00
PC:174b8     Total:1296065      MisBP:0   MisRate:0.00%    MPKI:0.00
PC:16ec2     Total:2382      MisBP:0   MisRate:0.00%    MPKI:0.00
PC:16e9a     Total:16      MisBP:0   MisRate:0.00%    MPKI:0.00
PC:146e0     Total:93      MisBP:0   MisRate:0.00%    MPKI:0.00
PC:16e9e     Total:16      MisBP:0   MisRate:0.00%    MPKI:0.00
PC:146e4     Total:93      MisBP:0   MisRate:0.00%    MPKI:0.00
PC:16ea2     Total:16      MisBP:0   MisRate:0.00%    MPKI:0.00
PC:16eaa     Total:16      MisBP:0   MisRate:0.00%    MPKI:0.00
PC:16eae     Total:16      MisBP:0   MisRate:0.00%    MPKI:0.00
PC:146f4     Total:945      MisBP:0   MisRate:0.00%    MPKI:0.00
PC:16eb2     Total:55      MisBP:0   MisRate:0.00%    MPKI:0.00
PC:16eb6     Total:55      MisBP:0   MisRate:0.00%    MPKI:0.00
PC:146fc     Total:68      MisBP:0   MisRate:0.00%    MPKI:0.00
PC:16eba     Total:55      MisBP:0   MisRate:0.00%    MPKI:0.00
PC:16ebe     Total:4764      MisBP:0   MisRate:0.00%    MPKI:0.00
PC:1e5a8     Total:11      MisBP:0   MisRate:0.00%    MPKI:0.00
PC:16ec6     Total:2382      MisBP:0   MisRate:0.00%    MPKI:0.00
PC:1470c     Total:1078      MisBP:0   MisRate:0.00%    MPKI:0.00
PC:16eca     Total:2382      MisBP:0   MisRate:0.00%    MPKI:0.00
PC:14710     Total:1076      MisBP:0   MisRate:0.00%    MPKI:0.00
PC:16ece     Total:2380      MisBP:0   MisRate:0.00%    MPKI:0.00
PC:14714     Total:1076      MisBP:0   MisRate:0.00%    MPKI:0.00
PC:16ed2     Total:74      MisBP:0   MisRate:0.00%    MPKI:0.00
PC:14718     Total:1075      MisBP:0   MisRate:0.00%    MPKI:0.00
PC:16ed6     Total:74      MisBP:0   MisRate:0.00%    MPKI:0.00
PC:1471c     Total:1067      MisBP:0   MisRate:0.00%    MPKI:0.00
PC:16eda     Total:74      MisBP:0   MisRate:0.00%    MPKI:0.00
PC:14720     Total:5      MisBP:0   MisRate:0.00%    MPKI:0.00
PC:16ede     Total:74      MisBP:0   MisRate:0.00%    MPKI:0.00
PC:1e54c     Total:46      MisBP:0   MisRate:0.00%    MPKI:0.00
PC:16e62     Total:5296      MisBP:0   MisRate:0.00%    MPKI:0.00
PC:1e5a0     Total:11      MisBP:0   MisRate:0.00%    MPKI:0.00
PC:146a8     Total:567      MisBP:0   MisRate:0.00%    MPKI:0.00
PC:16e66     Total:5296      MisBP:0   MisRate:0.00%    MPKI:0.00
PC:1e5a4     Total:11      MisBP:0   MisRate:0.00%    MPKI:0.00
PC:146ac     Total:1521      MisBP:0   MisRate:0.00%    MPKI:0.00
PC:16e6a     Total:5295      MisBP:0   MisRate:0.00%    MPKI:0.00
PC:14620     Total:1123      MisBP:0   MisRate:0.00%    MPKI:0.00
[...]
PC:145f6     Total:749      MisBP:0   MisRate:0.00%    MPKI:0.00
PC:16db4     Total:202      MisBP:0   MisRate:0.00%    MPKI:0.00
PC:16f50     Total:2547      MisBP:0   MisRate:0.00%    MPKI:0.00
PC:111f2     Total:3870      MisBP:0   MisRate:0.00%    MPKI:0.00
PC:14784     Total:4      MisBP:0   MisRate:0.00%    MPKI:0.00
PC:16f46     Total:278      MisBP:0   MisRate:0.00%    MPKI:0.00
PC:16f48     Total:278      MisBP:0   MisRate:0.00%    MPKI:0.00
PC:294a4     Total:1064      MisBP:0   MisRate:0.00%    MPKI:0.00
PC:111f0     Total:774      MisBP:0   MisRate:0.00%    MPKI:0.00
PC:16da8     Total:207      MisBP:0   MisRate:0.00%    MPKI:0.00
PC:145ea     Total:749      MisBP:0   MisRate:0.00%    MPKI:0.00
PC:16abe     Total:13      MisBP:0   MisRate:0.00%    MPKI:0.00
PC:185e6     Total:13995      MisBP:0   MisRate:0.00%    MPKI:0.00
PC:16f4c     Total:5100      MisBP:0   MisRate:0.00%    MPKI:0.00
PC:16f42     Total:9      MisBP:0   MisRate:0.00%    MPKI:0.00
PC:10eac     Total:93      MisBP:0   MisRate:0.00%    MPKI:0.00
PC:16f52     Total:2547      MisBP:0   MisRate:0.00%    MPKI:0.00
PC:16da4     Total:207      MisBP:0   MisRate:0.00%    MPKI:0.00
PC:16f56     Total:2545      MisBP:0   MisRate:0.00%    MPKI:0.00
PC:16f5a     Total:308      MisBP:0   MisRate:0.00%    MPKI:0.00
PC:145e6     Total:749      MisBP:0   MisRate:0.00%    MPKI:0.00
PC:16aba     Total:17      MisBP:0   MisRate:0.00%    MPKI:0.00
PC:16ab6     Total:18      MisBP:0   MisRate:0.00%    MPKI:0.00
PC:13666     Total:987      MisBP:0   MisRate:0.00%    MPKI:0.00
PC:10ea8     Total:93      MisBP:0   MisRate:0.00%    MPKI:0.00
PC:145e2     Total:749      MisBP:0   MisRate:0.00%    MPKI:0.00
PC:29440     Total:2891      MisBP:0   MisRate:0.00%    MPKI:0.00
PC:11194     Total:981      MisBP:0   MisRate:0.00%    MPKI:0.00
PC:145e8     Total:749      MisBP:0   MisRate:0.00%    MPKI:0.00
PC:16f3a     Total:11      MisBP:0   MisRate:0.00%    MPKI:0.00
PC:1477c     Total:5      MisBP:0   MisRate:0.00%    MPKI:0.00
PC:16da6     Total:207      MisBP:0   MisRate:0.00%    MPKI:0.00
PC:16f3c     Total:11      MisBP:0   MisRate:0.00%    MPKI:0.00
PC:1dc20     Total:169      MisBP:0   MisRate:0.00%    MPKI:0.00
PC:29444     Total:2890      MisBP:0   MisRate:0.00%    MPKI:0.00
PC:1dc1c     Total:338      MisBP:0   MisRate:0.00%    MPKI:0.00
PC:16f3e     Total:9      MisBP:0   MisRate:0.00%    MPKI:0.00
PC:14780     Total:4      MisBP:0   MisRate:0.00%    MPKI:0.00
PC:18f6a     Total:1578      MisBP:0   MisRate:0.00%    MPKI:0.00
PC:1dc18     Total:168      MisBP:0   MisRate:0.00%    MPKI:0.00
PC:2943c     Total:2991      MisBP:0   MisRate:0.00%    MPKI:0.00
PC:16d9c     Total:211      MisBP:0   MisRate:0.00%    MPKI:0.00
PC:1dc16     Total:168      MisBP:0   MisRate:0.00%    MPKI:0.00
PC:1dc14     Total:170      MisBP:0   MisRate:0.00%    MPKI:0.00
PC:29438     Total:2991      MisBP:0   MisRate:0.00%    MPKI:0.00
PC:16d98     Total:211      MisBP:0   MisRate:0.00%    MPKI:0.00
PC:1dc0c     Total:860      MisBP:0   MisRate:0.00%    MPKI:0.00
PC:29430     Total:2996      MisBP:0   MisRate:0.00%    MPKI:0.00
PC:145ee     Total:749      MisBP:0   MisRate:0.00%    MPKI:0.00
PC:16ac2     Total:12      MisBP:0   MisRate:0.00%    MPKI:0.00
PC:18616     Total:61008      MisBP:0   MisRate:0.00%    MPKI:0.00
PC:13804     Total:2      MisBP:0   MisRate:0.00%    MPKI:0.00
PC:11046     Total:1027      MisBP:0   MisRate:0.00%    MPKI:0.00
PC:16c58     Total:27      MisBP:0   MisRate:0.00%    MPKI:0.00
PC:16f00     Total:10      MisBP:0   MisRate:0.00%    MPKI:0.00
PC:13518     Total:894      MisBP:0   MisRate:0.00%    MPKI:0.00
PC:13512     Total:894      MisBP:0   MisRate:0.00%    MPKI:0.00
PC:16f04     Total:10      MisBP:0   MisRate:0.00%    MPKI:0.00
PC:1369c     Total:7      MisBP:0   MisRate:0.00%    MPKI:0.00
PC:10ede     Total:88      MisBP:0   MisRate:0.00%    MPKI:0.00
PC:16af0     Total:12      MisBP:0   MisRate:0.00%    MPKI:0.00
PC:1461a     Total:1      MisBP:0   MisRate:0.00%    MPKI:0.00
PC:1351a     Total:894      MisBP:0   MisRate:0.00%    MPKI:0.00
PC:10edc     Total:6      MisBP:0   MisRate:0.00%    MPKI:0.00
PC:16aee     Total:12      MisBP:0   MisRate:0.00%    MPKI:0.00
PC:16aec     Total:12      MisBP:0   MisRate:0.00%    MPKI:0.00
PC:13696     Total:7      MisBP:0   MisRate:0.00%    MPKI:0.00
PC:18612     Total:30443      MisBP:0   MisRate:0.00%    MPKI:0.00
PC:10ed8     Total:6      MisBP:0   MisRate:0.00%    MPKI:0.00
PC:16aea     Total:12      MisBP:0   MisRate:0.00%    MPKI:0.00
PC:14614     Total:42      MisBP:0   MisRate:0.00%    MPKI:0.00
PC:16f08     Total:10      MisBP:0   MisRate:0.00%    MPKI:0.00
PC:16ae8     Total:12      MisBP:0   MisRate:0.00%    MPKI:0.00
PC:1474a     Total:28      MisBP:0   MisRate:0.00%    MPKI:0.00
PC:14678     Total:747      MisBP:0   MisRate:0.00%    MPKI:0.00
PC:184ac     Total:241213      MisBP:0   MisRate:0.00%    MPKI:0.00
PC:13530     Total:879      MisBP:0   MisRate:0.00%    MPKI:0.00
PC:1e57c     Total:44      MisBP:0   MisRate:0.00%    MPKI:0.00
PC:18f6e     Total:1588      MisBP:0   MisRate:0.00%    MPKI:0.00
PC:14684     Total:747      MisBP:0   MisRate:0.00%    MPKI:0.00
PC:184a2     Total:241540      MisBP:0   MisRate:0.00%    MPKI:0.00
PC:18f72     Total:786      MisBP:0   MisRate:0.00%    MPKI:0.00
PC:13526     Total:894      MisBP:0   MisRate:0.00%    MPKI:0.00
PC:18f74     Total:786      MisBP:0   MisRate:0.00%    MPKI:0.00
PC:16c64     Total:25      MisBP:0   MisRate:0.00%    MPKI:0.00
PC:1e570     Total:46      MisBP:0   MisRate:0.00%    MPKI:0.00
PC:145f8     Total:749      MisBP:0   MisRate:0.00%    MPKI:0.00
PC:1849e     Total:241137      MisBP:0   MisRate:0.00%    MPKI:0.00
PC:13522     Total:894      MisBP:0   MisRate:0.00%    MPKI:0.00
PC:18f76     Total:786      MisBP:0   MisRate:0.00%    MPKI:0.00
PC:18f7a     Total:779      MisBP:0   MisRate:0.00%    MPKI:0.00
PC:16c60     Total:25      MisBP:0   MisRate:0.00%    MPKI:0.00
PC:1351e     Total:894      MisBP:0   MisRate:0.00%    MPKI:0.00
PC:16c5c     Total:25      MisBP:0   MisRate:0.00%    MPKI:0.00
PC:18f7e     Total:360      MisBP:0   MisRate:0.00%    MPKI:0.00
PC:16e30     Total:647      MisBP:0   MisRate:0.00%    MPKI:0.00
PC:14672     Total:747      MisBP:0   MisRate:0.00%    MPKI:0.00
PC:18496     Total:342950      MisBP:0   MisRate:0.00%    MPKI:0.00
PC:14760     Total:5      MisBP:0   MisRate:0.00%    MPKI:0.00
PC:14608     Total:42      MisBP:0   MisRate:0.00%    MPKI:0.00
PC:13688     Total:10      MisBP:0   MisRate:0.00%    MPKI:0.00
PC:16f14     Total:10      MisBP:0   MisRate:0.00%    MPKI:0.00
PC:16ad2     Total:12      MisBP:0   MisRate:0.00%    MPKI:0.00
PC:18604     Total:25648      MisBP:0   MisRate:0.00%    MPKI:0.00
PC:16f16     Total:10      MisBP:0   MisRate:0.00%    MPKI:0.00
PC:14758     Total:28      MisBP:0   MisRate:0.00%    MPKI:0.00
PC:10eca     Total:93      MisBP:0   MisRate:0.00%    MPKI:0.00
PC:16adc     Total:12      MisBP:0   MisRate:0.00%    MPKI:0.00
PC:10ebe     Total:93      MisBP:0   MisRate:0.00%    MPKI:0.00
PC:16f1a     Total:10      MisBP:0   MisRate:0.00%    MPKI:0.00
PC:16f1e     Total:10      MisBP:0   MisRate:0.00%    MPKI:0.00
PC:16ad6     Total:12      MisBP:0   MisRate:0.00%    MPKI:0.00
PC:16ada     Total:12      MisBP:0   MisRate:0.00%    MPKI:0.00
PC:16ad8     Total:12      MisBP:0   MisRate:0.00%    MPKI:0.00
PC:10ec6     Total:93      MisBP:0   MisRate:0.00%    MPKI:0.00
PC:18600     Total:25649      MisBP:0   MisRate:0.00%    MPKI:0.00
PC:1475c     Total:28      MisBP:0   MisRate:0.00%    MPKI:0.00
PC:13684     Total:10      MisBP:0   MisRate:0.00%    MPKI:0.00
PC:18608     Total:25633      MisBP:0   MisRate:0.00%    MPKI:0.00
PC:13692     Total:7      MisBP:0   MisRate:0.00%    MPKI:0.00
PC:1860e     Total:30452      MisBP:0   MisRate:0.00%    MPKI:0.00
PC:10ed4     Total:47      MisBP:0   MisRate:0.00%    MPKI:0.00
PC:16ae6     Total:12      MisBP:0   MisRate:0.00%    MPKI:0.00
PC:1460e     Total:42      MisBP:0   MisRate:0.00%    MPKI:0.00
PC:16ae2     Total:12      MisBP:0   MisRate:0.00%    MPKI:0.00
PC:16acc     Total:12      MisBP:0   MisRate:0.00%    MPKI:0.00
PC:1368c     Total:10      MisBP:0   MisRate:0.00%    MPKI:0.00
PC:16f0c     Total:10      MisBP:0   MisRate:0.00%    MPKI:0.00
PC:16ad0     Total:12      MisBP:0   MisRate:0.00%    MPKI:0.00
PC:16ade     Total:12      MisBP:0   MisRate:0.00%    MPKI:0.00
PC:10ece     Total:47      MisBP:0   MisRate:0.00%    MPKI:0.00
PC:16f20     Total:10      MisBP:0   MisRate:0.00%    MPKI:0.00
PC:16ae0     Total:12      MisBP:0   MisRate:0.00%    MPKI:0.00
PC:1368a     Total:10      MisBP:0   MisRate:0.00%    MPKI:0.00
PC:18606     Total:25642      MisBP:0   MisRate:0.00%    MPKI:0.00
PC:1474e     Total:28      MisBP:0   MisRate:0.00%    MPKI:0.00
PC:16f10     Total:10      MisBP:0   MisRate:0.00%    MPKI:0.00
PC:14752     Total:28      MisBP:0   MisRate:0.00%    MPKI:0.00
PC:17426     Total:26      MisBP:1   MisRate:3.85%    MPKI:0.00
PC:177f0     Total:19      MisBP:1   MisRate:5.26%    MPKI:0.00
PC:13bfe     Total:10591      MisBP:1   MisRate:0.01%    MPKI:0.00
PC:18882     Total:1      MisBP:1   MisRate:100.00%    MPKI:0.00
PC:1788e     Total:20      MisBP:1   MisRate:5.00%    MPKI:0.00
PC:29404     Total:871      MisBP:1   MisRate:0.11%    MPKI:0.00
PC:17806     Total:12      MisBP:1   MisRate:8.33%    MPKI:0.00
PC:13552     Total:137      MisBP:1   MisRate:0.73%    MPKI:0.00
PC:178f4     Total:22      MisBP:1   MisRate:4.55%    MPKI:0.00
PC:1354a     Total:14      MisBP:1   MisRate:7.14%    MPKI:0.00
PC:14604     Total:748      MisBP:2   MisRate:0.27%    MPKI:0.00
PC:14622     Total:7815      MisBP:2   MisRate:0.03%    MPKI:0.00
PC:12b66     Total:1054      MisBP:2   MisRate:0.19%    MPKI:0.00
PC:1884e     Total:5      MisBP:2   MisRate:40.00%    MPKI:0.00
PC:18870     Total:6      MisBP:2   MisRate:33.33%    MPKI:0.00
PC:179c8     Total:28      MisBP:3   MisRate:10.71%    MPKI:0.00
PC:17a30     Total:25      MisBP:3   MisRate:12.00%    MPKI:0.00
PC:17c76     Total:12292      MisBP:3   MisRate:0.02%    MPKI:0.00
PC:17440     Total:18      MisBP:3   MisRate:16.67%    MPKI:0.00
PC:137c4     Total:863      MisBP:3   MisRate:0.35%    MPKI:0.00
PC:13672     Total:895      MisBP:4   MisRate:0.45%    MPKI:0.00
PC:16c6c     Total:23      MisBP:5   MisRate:21.74%    MPKI:0.00
PC:17b2e     Total:4406      MisBP:5   MisRate:0.11%    MPKI:0.00
PC:16e7c     Total:216      MisBP:5   MisRate:2.31%    MPKI:0.00
PC:186ea     Total:1485      MisBP:5   MisRate:0.34%    MPKI:0.00
PC:10188     Total:37      MisBP:5   MisRate:13.51%    MPKI:0.00
PC:12b78     Total:755      MisBP:5   MisRate:0.66%    MPKI:0.00
PC:29470     Total:1121      MisBP:5   MisRate:0.45%    MPKI:0.00
PC:1874e     Total:72      MisBP:7   MisRate:9.72%    MPKI:0.00
PC:1776e     Total:22      MisBP:7   MisRate:31.82%    MPKI:0.00
PC:16d7c     Total:95      MisBP:7   MisRate:7.37%    MPKI:0.00
PC:13644     Total:73      MisBP:8   MisRate:10.96%    MPKI:0.00
PC:16f30     Total:1362      MisBP:8   MisRate:0.59%    MPKI:0.00
PC:16efe     Total:56      MisBP:8   MisRate:14.29%    MPKI:0.00
PC:172fc     Total:149      MisBP:9   MisRate:6.04%    MPKI:0.00
PC:17018     Total:30      MisBP:9   MisRate:30.00%    MPKI:0.00
PC:16d28     Total:100      MisBP:9   MisRate:9.00%    MPKI:0.00
PC:17aea     Total:23      MisBP:9   MisRate:39.13%    MPKI:0.00
PC:29354     Total:201      MisBP:9   MisRate:4.48%    MPKI:0.00
PC:1358e     Total:63347      MisBP:10   MisRate:0.02%    MPKI:0.00
PC:16c52     Total:32      MisBP:10   MisRate:31.25%    MPKI:0.00
PC:1730e     Total:1373      MisBP:10   MisRate:0.73%    MPKI:0.00
PC:17a1c     Total:26      MisBP:11   MisRate:42.31%    MPKI:0.00
PC:17244     Total:32      MisBP:11   MisRate:34.38%    MPKI:0.00
PC:17174     Total:23      MisBP:11   MisRate:47.83%    MPKI:0.00
PC:297a0     Total:98      MisBP:11   MisRate:11.22%    MPKI:0.00
PC:176fe     Total:29      MisBP:11   MisRate:37.93%    MPKI:0.00
PC:178e0     Total:30      MisBP:12   MisRate:40.00%    MPKI:0.00
PC:186d0     Total:5308      MisBP:12   MisRate:0.23%    MPKI:0.00
PC:172d6     Total:147      MisBP:12   MisRate:8.16%    MPKI:0.00
PC:1362e     Total:109      MisBP:12   MisRate:11.01%    MPKI:0.00
PC:17cc8     Total:40      MisBP:13   MisRate:32.50%    MPKI:0.00
PC:18a5e     Total:62      MisBP:13   MisRate:20.97%    MPKI:0.00
PC:186fe     Total:1548      MisBP:14   MisRate:0.90%    MPKI:0.00
PC:173a4     Total:218      MisBP:14   MisRate:6.42%    MPKI:0.00
PC:17658     Total:71173      MisBP:14   MisRate:0.02%    MPKI:0.00
PC:177dc     Total:32      MisBP:15   MisRate:46.88%    MPKI:0.00
PC:173ce     Total:1641      MisBP:15   MisRate:0.91%    MPKI:0.00
PC:171dc     Total:33      MisBP:15   MisRate:45.45%    MPKI:0.00
PC:16f68     Total:305      MisBP:16   MisRate:5.25%    MPKI:0.00
PC:1787a     Total:33      MisBP:16   MisRate:48.48%    MPKI:0.00
PC:179b4     Total:38      MisBP:17   MisRate:44.74%    MPKI:0.00
PC:17490     Total:169      MisBP:17   MisRate:10.06%    MPKI:0.00
PC:17946     Total:29      MisBP:17   MisRate:58.62%    MPKI:0.00
PC:10158     Total:2988      MisBP:18   MisRate:0.60%    MPKI:0.00
PC:13544     Total:140      MisBP:19   MisRate:13.57%    MPKI:0.00
PC:13592     Total:63340      MisBP:19   MisRate:0.03%    MPKI:0.00
PC:1872a     Total:29976      MisBP:21   MisRate:0.07%    MPKI:0.00
PC:29818     Total:188      MisBP:23   MisRate:12.23%    MPKI:0.00
PC:29348     Total:946      MisBP:24   MisRate:2.54%    MPKI:0.00
PC:13bae     Total:3922503      MisBP:26   MisRate:0.00%    MPKI:0.00
PC:187a2     Total:33081      MisBP:26   MisRate:0.08%    MPKI:0.00
PC:14700     Total:62      MisBP:27   MisRate:43.55%    MPKI:0.00
PC:14708     Total:62      MisBP:28   MisRate:45.16%    MPKI:0.00
PC:1353e     Total:867      MisBP:32   MisRate:3.69%    MPKI:0.00
PC:17320     Total:196      MisBP:32   MisRate:16.33%    MPKI:0.00
PC:293c4     Total:915      MisBP:34   MisRate:3.72%    MPKI:0.00
PC:18f7c     Total:722      MisBP:36   MisRate:4.99%    MPKI:0.00
PC:146c2     Total:273      MisBP:37   MisRate:13.55%    MPKI:0.00
PC:135c6     Total:70953      MisBP:38   MisRate:0.05%    MPKI:0.00
PC:14606     Total:748      MisBP:40   MisRate:5.35%    MPKI:0.00
PC:13668     Total:987      MisBP:40   MisRate:4.05%    MPKI:0.00
PC:16cc0     Total:157608      MisBP:42   MisRate:0.03%    MPKI:0.00
PC:16aa0     Total:93      MisBP:45   MisRate:48.39%    MPKI:0.00
PC:10ecc     Total:93      MisBP:45   MisRate:48.39%    MPKI:0.00
PC:146b0     Total:1520      MisBP:46   MisRate:3.03%    MPKI:0.00
PC:18ed6     Total:418      MisBP:47   MisRate:11.24%    MPKI:0.00
PC:146b6     Total:1267      MisBP:49   MisRate:3.87%    MPKI:0.00
PC:29654     Total:10419      MisBP:54   MisRate:0.52%    MPKI:0.00
PC:18a36     Total:3658070      MisBP:54   MisRate:0.00%    MPKI:0.00
PC:146f0     Total:956      MisBP:55   MisRate:5.75%    MPKI:0.00
PC:18f04     Total:2575      MisBP:57   MisRate:2.21%    MPKI:0.00
PC:18644     Total:26839      MisBP:57   MisRate:0.21%    MPKI:0.00
PC:18f26     Total:1345      MisBP:59   MisRate:4.39%    MPKI:0.00
PC:1867e     Total:500      MisBP:60   MisRate:12.00%    MPKI:0.00
PC:18f16     Total:1117      MisBP:61   MisRate:5.46%    MPKI:0.00
PC:111de     Total:801      MisBP:62   MisRate:7.74%    MPKI:0.00
PC:293d0     Total:848      MisBP:62   MisRate:7.31%    MPKI:0.00
PC:13614     Total:108      MisBP:65   MisRate:60.19%    MPKI:0.00
PC:10f9c     Total:1140      MisBP:66   MisRate:5.79%    MPKI:0.00
PC:16ed0     Total:2380      MisBP:67   MisRate:2.82%    MPKI:0.00
PC:18ed0     Total:30834      MisBP:69   MisRate:0.22%    MPKI:0.00
PC:18ee6     Total:1067      MisBP:73   MisRate:6.84%    MPKI:0.00
PC:146a4     Total:1408      MisBP:78   MisRate:5.54%    MPKI:0.00
PC:1848c     Total:343783      MisBP:79   MisRate:0.02%    MPKI:0.00
PC:1360c     Total:888      MisBP:84   MisRate:9.46%    MPKI:0.00
PC:18f5a     Total:478      MisBP:90   MisRate:18.83%    MPKI:0.00
PC:13bf6     Total:3931398      MisBP:95   MisRate:0.00%    MPKI:0.00
PC:174bc     Total:1294479      MisBP:97   MisRate:0.01%    MPKI:0.00
PC:1104e     Total:1024      MisBP:106   MisRate:10.35%    MPKI:0.00
PC:16e70     Total:5204      MisBP:111   MisRate:2.13%    MPKI:0.00
PC:18674     Total:1327      MisBP:111   MisRate:8.36%    MPKI:0.00
PC:17b80     Total:19112      MisBP:117   MisRate:0.61%    MPKI:0.00
PC:175c0     Total:525906      MisBP:120   MisRate:0.02%    MPKI:0.00
PC:13efe     Total:1109      MisBP:121   MisRate:10.91%    MPKI:0.00
PC:17398     Total:1382      MisBP:126   MisRate:9.12%    MPKI:0.00
PC:1737a     Total:1410      MisBP:127   MisRate:9.01%    MPKI:0.00
PC:16f58     Total:2545      MisBP:151   MisRate:5.93%    MPKI:0.00
PC:173bc     Total:1636      MisBP:167   MisRate:10.21%    MPKI:0.00
PC:1359a     Total:63319      MisBP:181   MisRate:0.29%    MPKI:0.00
PC:29804     Total:6158      MisBP:188   MisRate:3.05%    MPKI:0.00
PC:146a6     Total:1408      MisBP:190   MisRate:13.49%    MPKI:0.00
PC:16dce     Total:2187      MisBP:217   MisRate:9.92%    MPKI:0.00
PC:1738c     Total:1218      MisBP:224   MisRate:18.39%    MPKI:0.00
PC:174ce     Total:1432963      MisBP:240   MisRate:0.02%    MPKI:0.00
PC:186bc     Total:2146      MisBP:345   MisRate:16.08%    MPKI:0.00
PC:16de0     Total:2117      MisBP:468   MisRate:22.11%    MPKI:0.00
PC:16e3e     Total:7229      MisBP:496   MisRate:6.86%    MPKI:0.00
PC:29454     Total:2882      MisBP:515   MisRate:17.87%    MPKI:0.00
PC:13bd0     Total:3892909      MisBP:856   MisRate:0.02%    MPKI:0.00
PC:13eb0     Total:61849      MisBP:914   MisRate:1.48%    MPKI:0.00
PC:184f8     Total:3251477      MisBP:969   MisRate:0.03%    MPKI:0.00
PC:135aa     Total:70484      MisBP:1105   MisRate:1.57%    MPKI:0.00
PC:16e50     Total:6423      MisBP:1306   MisRate:20.33%    MPKI:0.00
PC:18628     Total:30261      MisBP:2569   MisRate:8.49%    MPKI:0.01
PC:17b64     Total:45114      MisBP:2674   MisRate:5.93%    MPKI:0.01
PC:17084     Total:65149      MisBP:2744   MisRate:4.21%    MPKI:0.01
PC:17584     Total:1658385      MisBP:2855   MisRate:0.17%    MPKI:0.01
PC:185d8     Total:21862      MisBP:3282   MisRate:15.01%    MPKI:0.01
PC:17632     Total:342190      MisBP:3554   MisRate:1.04%    MPKI:0.01
PC:18782     Total:26027      MisBP:4681   MisRate:17.99%    MPKI:0.02
PC:18796     Total:31033      MisBP:6142   MisRate:19.79%    MPKI:0.02
PC:185f2     Total:143382      MisBP:7795   MisRate:5.44%    MPKI:0.03
PC:17b76     Total:41140      MisBP:9277   MisRate:22.55%    MPKI:0.03
PC:1759c     Total:1481447      MisBP:15510   MisRate:1.05%    MPKI:0.05
PC:1849a     Total:334133      MisBP:21126   MisRate:6.32%    MPKI:0.07
PC:17622     Total:324032      MisBP:32060   MisRate:9.89%    MPKI:0.10
PC:17690     Total:389613      MisBP:45834   MisRate:11.76%    MPKI:0.15
PC:13bca     Total:3914353      MisBP:47422   MisRate:1.21%    MPKI:0.15
PC:174e8     Total:1195441      MisBP:48533   MisRate:4.06%    MPKI:0.16
PC:170ba     Total:715435      MisBP:53676   MisRate:7.50%    MPKI:0.17
PC:174d4     Total:1394008      MisBP:54029   MisRate:3.88%    MPKI:0.17
PC:184f2     Total:3415401      MisBP:57422   MisRate:1.68%    MPKI:0.19
PC:17500     Total:1135289      MisBP:115221   MisRate:10.15%    MPKI:0.37
PC:1754e     Total:1336927      MisBP:128539   MisRate:9.61%    MPKI:0.41
PC:17066     Total:947509      MisBP:131371   MisRate:13.86%    MPKI:0.42
PC:16cf6     Total:1649826      MisBP:131823   MisRate:7.99%    MPKI:0.43
PC:175f8     Total:1823512      MisBP:223532   MisRate:12.26%    MPKI:0.72
PC:16ca2     Total:2624264      MisBP:377651   MisRate:14.39%    MPKI:1.22
PC:1753e     Total:2239641      MisBP:415429   MisRate:18.55%    MPKI:1.34
PC:17564     Total:8359049      MisBP:644429   MisRate:7.71%    MPKI:2.08
Totfetch:525568633  TotInsts:310000006  TotMis : inf%   MPKI : 8.39
=============finish sim!!!!!!=============
Done running SimPoint!
