Global frequency set at 1000000000000 ticks per second
 Register [printBranch()] ExitCallback !!!!!!! 
gem5 Simulator System.  https://www.gem5.org
gem5 is copyrighted software; use the --copyright option for details.

gem5 version 22.0.0.2
gem5 compiled Sep  7 2022 00:42:18
gem5 started Sep  7 2022 03:25:28
gem5 executing on a100, pid 2761009
command line: /data/zxf/gem5/gem5-prof/build/ARM/gem5.fast --outdir=/data/zxf/checkpoint/spec2006/429.mcf/prof/mcf_ckp_6 /data/zxf/gem5/gem5-prof/configs/example/se.py --cpu-type O3CPU --cpu-clock 1GHz --num-cpu 1 --l1d-hwp-type=BOPPrefetcher --caches --l2cache --l1i_size 32kB --l1d_size 32kB --l2_size 1MB --l1i_assoc 8 --l1d_assoc 8 --l2_assoc 16 --cacheline_size 64 --mem-type DDR3_2133_8x8 --mem-size 16GB --restore-simpoint-checkpoint -r 6 --checkpoint-dir /data/zxf/checkpoint/spec2006/429.mcf/ckpt -c mcf_base.gcc41-64bit -o inp.in

info: Standard input is not a terminal, disabling listeners.
Resuming from /data/zxf/checkpoint/spec2006/429.mcf/ckpt/cpt.simpoint_05_inst_164990000000_weight_0.314510_interval_300000000_warmup_10000000
Resuming from SimPoint #5, start_inst:164990000000, weight:0.314510, interval:300000000, warmup:10000000
Switch at curTick count:10000
Switched CPUS @ tick 97060638410000
[(<m5.objects.ArmCPU.ArmAtomicSimpleCPU object at 0x7f096a76abb0>, <m5.objects.ArmCPU.ArmO3CPU object at 0x7f096a782e20>)]
switching cpus



+++++++++++++++++++++++++zxf print simpoint+++++++++++++++++++++++++++
Warmed up! Dumping and resetting stats!


=============start sim!!!!!!=============
PC:11a22     Total:26866      MisBP:0   MisRate:0.00%    MPKI:0.00
PC:11c30     Total:15706      MisBP:0   MisRate:0.00%    MPKI:0.00
PC:119f8     Total:27871      MisBP:0   MisRate:0.00%    MPKI:0.00
PC:11a04     Total:27448      MisBP:0   MisRate:0.00%    MPKI:0.00
PC:1190c     Total:1291981      MisBP:0   MisRate:0.00%    MPKI:0.00
PC:1170a     Total:24449      MisBP:0   MisRate:0.00%    MPKI:0.00
PC:11bb0     Total:17121      MisBP:0   MisRate:0.00%    MPKI:0.00
PC:10a5c     Total:1      MisBP:0   MisRate:0.00%    MPKI:0.00
PC:11820     Total:62      MisBP:0   MisRate:0.00%    MPKI:0.00
PC:11c5a     Total:7488118      MisBP:0   MisRate:0.00%    MPKI:0.00
PC:117f6     Total:40849      MisBP:0   MisRate:0.00%    MPKI:0.00
PC:1183c     Total:215      MisBP:0   MisRate:0.00%    MPKI:0.00
PC:11c76     Total:673326      MisBP:0   MisRate:0.00%    MPKI:0.00
PC:11a3e     Total:26179      MisBP:0   MisRate:0.00%    MPKI:0.00
PC:11c78     Total:672437      MisBP:0   MisRate:0.00%    MPKI:0.00
PC:11a40     Total:25742      MisBP:0   MisRate:0.00%    MPKI:0.00
PC:11842     Total:187      MisBP:0   MisRate:0.00%    MPKI:0.00
PC:11c7c     Total:672047      MisBP:0   MisRate:0.00%    MPKI:0.00
PC:11a44     Total:51477      MisBP:0   MisRate:0.00%    MPKI:0.00
PC:11a48     Total:25733      MisBP:0   MisRate:0.00%    MPKI:0.00
PC:10a5e     Total:1      MisBP:0   MisRate:0.00%    MPKI:0.00
PC:11902     Total:557      MisBP:0   MisRate:0.00%    MPKI:0.00
PC:117fe     Total:58288      MisBP:0   MisRate:0.00%    MPKI:0.00
PC:11c38     Total:21      MisBP:0   MisRate:0.00%    MPKI:0.00
PC:11a00     Total:27496      MisBP:0   MisRate:0.00%    MPKI:0.00
PC:11904     Total:556      MisBP:0   MisRate:0.00%    MPKI:0.00
PC:11908     Total:556      MisBP:0   MisRate:0.00%    MPKI:0.00
PC:1190e     Total:1291745      MisBP:0   MisRate:0.00%    MPKI:0.00
PC:1170c     Total:24593      MisBP:0   MisRate:0.00%    MPKI:0.00
PC:11bb2     Total:17081      MisBP:0   MisRate:0.00%    MPKI:0.00
PC:11a4c     Total:25731      MisBP:0   MisRate:0.00%    MPKI:0.00
PC:11708     Total:24286      MisBP:0   MisRate:0.00%    MPKI:0.00
PC:10a5a     Total:1      MisBP:0   MisRate:0.00%    MPKI:0.00
PC:1190a     Total:554      MisBP:0   MisRate:0.00%    MPKI:0.00
PC:11a08     Total:27433      MisBP:0   MisRate:0.00%    MPKI:0.00
PC:1170e     Total:24590      MisBP:0   MisRate:0.00%    MPKI:0.00
PC:10a60     Total:1      MisBP:0   MisRate:0.00%    MPKI:0.00
PC:117e8     Total:5525      MisBP:0   MisRate:0.00%    MPKI:0.00
PC:119ea     Total:2667      MisBP:0   MisRate:0.00%    MPKI:0.00
PC:1185a     Total:178      MisBP:0   MisRate:0.00%    MPKI:0.00
PC:11c88     Total:668097      MisBP:0   MisRate:0.00%    MPKI:0.00
PC:11850     Total:171      MisBP:0   MisRate:0.00%    MPKI:0.00
PC:11c8a     Total:667941      MisBP:0   MisRate:0.00%    MPKI:0.00
PC:11852     Total:169      MisBP:0   MisRate:0.00%    MPKI:0.00
PC:11854     Total:167      MisBP:0   MisRate:0.00%    MPKI:0.00
PC:11c8e     Total:667840      MisBP:0   MisRate:0.00%    MPKI:0.00
PC:11856     Total:167      MisBP:0   MisRate:0.00%    MPKI:0.00
PC:11c90     Total:666834      MisBP:0   MisRate:0.00%    MPKI:0.00
PC:11c92     Total:666243      MisBP:0   MisRate:0.00%    MPKI:0.00
PC:1184e     Total:186      MisBP:0   MisRate:0.00%    MPKI:0.00
PC:11a6e     Total:16018      MisBP:0   MisRate:0.00%    MPKI:0.00
PC:11a72     Total:16013      MisBP:0   MisRate:0.00%    MPKI:0.00
PC:11a76     Total:16013      MisBP:0   MisRate:0.00%    MPKI:0.00
PC:11a7a     Total:133      MisBP:0   MisRate:0.00%    MPKI:0.00
PC:11a7c     Total:131      MisBP:0   MisRate:0.00%    MPKI:0.00
PC:1185e     Total:34947      MisBP:0   MisRate:0.00%    MPKI:0.00
PC:11c9a     Total:27383      MisBP:0   MisRate:0.00%    MPKI:0.00
PC:11862     Total:984483      MisBP:0   MisRate:0.00%    MPKI:0.00
PC:11a68     Total:16019      MisBP:0   MisRate:0.00%    MPKI:0.00
PC:11a4e     Total:25676      MisBP:0   MisRate:0.00%    MPKI:0.00
PC:11a52     Total:16090      MisBP:0   MisRate:0.00%    MPKI:0.00
PC:11a54     Total:16089      MisBP:0   MisRate:0.00%    MPKI:0.00
PC:11a58     Total:16089      MisBP:0   MisRate:0.00%    MPKI:0.00
PC:11a5a     Total:16059      MisBP:0   MisRate:0.00%    MPKI:0.00
PC:11a5c     Total:16059      MisBP:0   MisRate:0.00%    MPKI:0.00
PC:11a5e     Total:16058      MisBP:0   MisRate:0.00%    MPKI:0.00
PC:11a62     Total:16055      MisBP:0   MisRate:0.00%    MPKI:0.00
PC:11a66     Total:16042      MisBP:0   MisRate:0.00%    MPKI:0.00
PC:11704     Total:247032      MisBP:0   MisRate:0.00%    MPKI:0.00
PC:11a6c     Total:16019      MisBP:0   MisRate:0.00%    MPKI:0.00
PC:11846     Total:187      MisBP:0   MisRate:0.00%    MPKI:0.00
PC:11c80     Total:669625      MisBP:0   MisRate:0.00%    MPKI:0.00
PC:11848     Total:187      MisBP:0   MisRate:0.00%    MPKI:0.00
PC:11c82     Total:669215      MisBP:0   MisRate:0.00%    MPKI:0.00
PC:1184a     Total:188      MisBP:0   MisRate:0.00%    MPKI:0.00
PC:1184c     Total:187      MisBP:0   MisRate:0.00%    MPKI:0.00
PC:11c86     Total:668850      MisBP:0   MisRate:0.00%    MPKI:0.00
PC:1180a     Total:41305      MisBP:0   MisRate:0.00%    MPKI:0.00
PC:1193a     Total:2075      MisBP:0   MisRate:0.00%    MPKI:0.00
PC:11836     Total:65      MisBP:0   MisRate:0.00%    MPKI:0.00
PC:11c70     Total:680290      MisBP:0   MisRate:0.00%    MPKI:0.00
PC:11a38     Total:26267      MisBP:0   MisRate:0.00%    MPKI:0.00
PC:118c4     Total:6006801      MisBP:0   MisRate:0.00%    MPKI:0.00
PC:118de     Total:2572162      MisBP:0   MisRate:0.00%    MPKI:0.00
PC:118d0     Total:2757097      MisBP:0   MisRate:0.00%    MPKI:0.00
PC:118d2     Total:2722465      MisBP:0   MisRate:0.00%    MPKI:0.00
PC:118d4     Total:2714069      MisBP:0   MisRate:0.00%    MPKI:0.00
PC:11738     Total:22853      MisBP:0   MisRate:0.00%    MPKI:0.00
PC:11a0c     Total:27386      MisBP:0   MisRate:0.00%    MPKI:0.00
PC:118d6     Total:2707328      MisBP:0   MisRate:0.00%    MPKI:0.00
PC:118d8     Total:2688021      MisBP:0   MisRate:0.00%    MPKI:0.00
PC:11710     Total:24590      MisBP:0   MisRate:0.00%    MPKI:0.00
PC:11bb6     Total:17079      MisBP:0   MisRate:0.00%    MPKI:0.00
PC:10a62     Total:1      MisBP:0   MisRate:0.00%    MPKI:0.00
PC:11912     Total:1283359      MisBP:0   MisRate:0.00%    MPKI:0.00
PC:1180e     Total:41237      MisBP:0   MisRate:0.00%    MPKI:0.00
PC:11c18     Total:15675      MisBP:0   MisRate:0.00%    MPKI:0.00
PC:119e2     Total:27388      MisBP:0   MisRate:0.00%    MPKI:0.00
PC:1191e     Total:22019      MisBP:0   MisRate:0.00%    MPKI:0.00
PC:11a1c     Total:26951      MisBP:0   MisRate:0.00%    MPKI:0.00
PC:1173c     Total:22838      MisBP:0   MisRate:0.00%    MPKI:0.00
PC:10a22     Total:12990915      MisBP:0   MisRate:0.00%    MPKI:0.00
PC:11b76     Total:1070775      MisBP:0   MisRate:0.00%    MPKI:0.00
PC:1193e     Total:680      MisBP:0   MisRate:0.00%    MPKI:0.00
PC:118e2     Total:2547904      MisBP:0   MisRate:0.00%    MPKI:0.00
PC:117de     Total:50659      MisBP:0   MisRate:0.00%    MPKI:0.00
PC:11c48     Total:6970625      MisBP:0   MisRate:0.00%    MPKI:0.00
PC:119e0     Total:27396      MisBP:0   MisRate:0.00%    MPKI:0.00
PC:11888     Total:1085      MisBP:0   MisRate:0.00%    MPKI:0.00
PC:10a6c     Total:1      MisBP:0   MisRate:0.00%    MPKI:0.00
PC:10a00     Total:2913114      MisBP:0   MisRate:0.00%    MPKI:0.00
PC:11b54     Total:6467225      MisBP:0   MisRate:0.00%    MPKI:0.00
PC:11818     Total:41213      MisBP:0   MisRate:0.00%    MPKI:0.00
PC:11c52     Total:7566365      MisBP:0   MisRate:0.00%    MPKI:0.00
PC:11a1a     Total:27336      MisBP:0   MisRate:0.00%    MPKI:0.00
PC:11c2e     Total:15681      MisBP:0   MisRate:0.00%    MPKI:0.00
PC:118f2     Total:890179      MisBP:0   MisRate:0.00%    MPKI:0.00
PC:117ee     Total:5374      MisBP:0   MisRate:0.00%    MPKI:0.00
PC:119f0     Total:27784      MisBP:0   MisRate:0.00%    MPKI:0.00
PC:118f4     Total:889944      MisBP:0   MisRate:0.00%    MPKI:0.00
PC:117f0     Total:5360      MisBP:0   MisRate:0.00%    MPKI:0.00
PC:11c2a     Total:15681      MisBP:0   MisRate:0.00%    MPKI:0.00
PC:119f2     Total:27896      MisBP:0   MisRate:0.00%    MPKI:0.00
PC:118f6     Total:875236      MisBP:0   MisRate:0.00%    MPKI:0.00
PC:118f8     Total:872711      MisBP:0   MisRate:0.00%    MPKI:0.00
PC:119ee     Total:2661      MisBP:0   MisRate:0.00%    MPKI:0.00
PC:119f6     Total:27880      MisBP:0   MisRate:0.00%    MPKI:0.00
PC:118fc     Total:871145      MisBP:0   MisRate:0.00%    MPKI:0.00
PC:117f8     Total:40816      MisBP:0   MisRate:0.00%    MPKI:0.00
PC:119fa     Total:27830      MisBP:0   MisRate:0.00%    MPKI:0.00
PC:117fa     Total:59792      MisBP:0   MisRate:0.00%    MPKI:0.00
PC:11c34     Total:15704      MisBP:0   MisRate:0.00%    MPKI:0.00
PC:119fc     Total:27812      MisBP:0   MisRate:0.00%    MPKI:0.00
PC:11900     Total:558      MisBP:0   MisRate:0.00%    MPKI:0.00
PC:11a14     Total:27355      MisBP:0   MisRate:0.00%    MPKI:0.00
PC:11a10     Total:27363      MisBP:0   MisRate:0.00%    MPKI:0.00
PC:118da     Total:2662878      MisBP:0   MisRate:0.00%    MPKI:0.00
PC:11712     Total:24678      MisBP:0   MisRate:0.00%    MPKI:0.00
PC:10a64     Total:1      MisBP:0   MisRate:0.00%    MPKI:0.00
PC:11914     Total:1282180      MisBP:0   MisRate:0.00%    MPKI:0.00
PC:118dc     Total:2646719      MisBP:0   MisRate:0.00%    MPKI:0.00
PC:118a0     Total:2304573      MisBP:0   MisRate:0.00%    MPKI:0.00
PC:11916     Total:1281328      MisBP:0   MisRate:0.00%    MPKI:0.00
PC:11812     Total:41217      MisBP:0   MisRate:0.00%    MPKI:0.00
PC:11c9c     Total:27377      MisBP:0   MisRate:0.00%    MPKI:0.00
PC:118a4     Total:2301199      MisBP:0   MisRate:0.00%    MPKI:0.00
PC:11cde     Total:1      MisBP:0   MisRate:0.00%    MPKI:0.00
PC:1191a     Total:1270182      MisBP:0   MisRate:0.00%    MPKI:0.00
PC:11816     Total:41218      MisBP:0   MisRate:0.00%    MPKI:0.00
PC:11a18     Total:27341      MisBP:0   MisRate:0.00%    MPKI:0.00
PC:118f0     Total:892663      MisBP:0   MisRate:0.00%    MPKI:0.00
PC:117ec     Total:5389      MisBP:0   MisRate:0.00%    MPKI:0.00
PC:11c26     Total:15683      MisBP:0   MisRate:0.00%    MPKI:0.00
PC:119b0     Total:27039      MisBP:0   MisRate:0.00%    MPKI:0.00
PC:11998     Total:18203      MisBP:0   MisRate:0.00%    MPKI:0.00
PC:1199a     Total:18182      MisBP:0   MisRate:0.00%    MPKI:0.00
PC:1199c     Total:18176      MisBP:0   MisRate:0.00%    MPKI:0.00
PC:1199e     Total:18176      MisBP:0   MisRate:0.00%    MPKI:0.00
PC:119a0     Total:18164      MisBP:0   MisRate:0.00%    MPKI:0.00
PC:119a4     Total:27041      MisBP:0   MisRate:0.00%    MPKI:0.00
PC:119a6     Total:27040      MisBP:0   MisRate:0.00%    MPKI:0.00
PC:119a8     Total:27039      MisBP:0   MisRate:0.00%    MPKI:0.00
PC:119ac     Total:27039      MisBP:0   MisRate:0.00%    MPKI:0.00
PC:11aa4     Total:1480      MisBP:0   MisRate:0.00%    MPKI:0.00
PC:119b2     Total:27185      MisBP:0   MisRate:0.00%    MPKI:0.00
PC:119b4     Total:27185      MisBP:0   MisRate:0.00%    MPKI:0.00
PC:119b6     Total:27185      MisBP:0   MisRate:0.00%    MPKI:0.00
PC:119b8     Total:25872      MisBP:0   MisRate:0.00%    MPKI:0.00
PC:119bc     Total:25871      MisBP:0   MisRate:0.00%    MPKI:0.00
PC:119be     Total:25871      MisBP:0   MisRate:0.00%    MPKI:0.00
PC:11b90     Total:177263      MisBP:0   MisRate:0.00%    MPKI:0.00
PC:10a66     Total:1      MisBP:0   MisRate:0.00%    MPKI:0.00
PC:11bba     Total:17067      MisBP:0   MisRate:0.00%    MPKI:0.00
PC:11a90     Total:1521      MisBP:0   MisRate:0.00%    MPKI:0.00
PC:10a3e     Total:4299      MisBP:0   MisRate:0.00%    MPKI:0.00
PC:11b26     Total:939989      MisBP:0   MisRate:0.00%    MPKI:0.00
PC:10a42     Total:2139      MisBP:0   MisRate:0.00%    MPKI:0.00
PC:11b2a     Total:939956      MisBP:0   MisRate:0.00%    MPKI:0.00
PC:11a80     Total:1664      MisBP:0   MisRate:0.00%    MPKI:0.00
PC:11a84     Total:1664      MisBP:0   MisRate:0.00%    MPKI:0.00
PC:11a86     Total:1595      MisBP:0   MisRate:0.00%    MPKI:0.00
PC:11a8a     Total:1594      MisBP:0   MisRate:0.00%    MPKI:0.00
PC:11a8c     Total:1589      MisBP:0   MisRate:0.00%    MPKI:0.00
PC:10a6a     Total:1      MisBP:0   MisRate:0.00%    MPKI:0.00
PC:11a92     Total:1519      MisBP:0   MisRate:0.00%    MPKI:0.00
PC:11a94     Total:1518      MisBP:0   MisRate:0.00%    MPKI:0.00
PC:11a96     Total:1518      MisBP:0   MisRate:0.00%    MPKI:0.00
PC:11a9a     Total:1518      MisBP:0   MisRate:0.00%    MPKI:0.00
PC:11a9c     Total:1518      MisBP:0   MisRate:0.00%    MPKI:0.00
PC:11a9e     Total:1516      MisBP:0   MisRate:0.00%    MPKI:0.00
PC:11aa0     Total:1498      MisBP:0   MisRate:0.00%    MPKI:0.00
PC:11aa2     Total:1490      MisBP:0   MisRate:0.00%    MPKI:0.00
PC:109e6     Total:128      MisBP:0   MisRate:0.00%    MPKI:0.00
PC:11b04     Total:497343      MisBP:0   MisRate:0.00%    MPKI:0.00
PC:11b08     Total:497328      MisBP:0   MisRate:0.00%    MPKI:0.00
PC:11b0c     Total:497320      MisBP:0   MisRate:0.00%    MPKI:0.00
PC:11b0e     Total:497231      MisBP:0   MisRate:0.00%    MPKI:0.00
PC:11b10     Total:497223      MisBP:0   MisRate:0.00%    MPKI:0.00
PC:11b2c     Total:939936      MisBP:0   MisRate:0.00%    MPKI:0.00
PC:11b2e     Total:868467      MisBP:0   MisRate:0.00%    MPKI:0.00
PC:109de     Total:128      MisBP:0   MisRate:0.00%    MPKI:0.00
PC:11b32     Total:868455      MisBP:0   MisRate:0.00%    MPKI:0.00
PC:11b00     Total:4581846      MisBP:0   MisRate:0.00%    MPKI:0.00
PC:11b3a     Total:5561747      MisBP:0   MisRate:0.00%    MPKI:0.00
PC:11c40     Total:7007527      MisBP:0   MisRate:0.00%    MPKI:0.00
PC:10a14     Total:15727379      MisBP:0   MisRate:0.00%    MPKI:0.00
PC:11cd2     Total:27178      MisBP:0   MisRate:0.00%    MPKI:0.00
PC:11cd4     Total:27171      MisBP:0   MisRate:0.00%    MPKI:0.00
PC:11cd8     Total:27164      MisBP:0   MisRate:0.00%    MPKI:0.00
PC:11cdc     Total:27151      MisBP:0   MisRate:0.00%    MPKI:0.00
PC:11ce0     Total:1      MisBP:0   MisRate:0.00%    MPKI:0.00
PC:11cbc     Total:26954      MisBP:0   MisRate:0.00%    MPKI:0.00
PC:11bbe     Total:16863      MisBP:0   MisRate:0.00%    MPKI:0.00
PC:11bd2     Total:1523103      MisBP:0   MisRate:0.00%    MPKI:0.00
PC:11bda     Total:760615      MisBP:0   MisRate:0.00%    MPKI:0.00
PC:11bf0     Total:751379      MisBP:0   MisRate:0.00%    MPKI:0.00
PC:11c04     Total:744793      MisBP:0   MisRate:0.00%    MPKI:0.00
PC:11c08     Total:744780      MisBP:0   MisRate:0.00%    MPKI:0.00
PC:11c0e     Total:15675      MisBP:0   MisRate:0.00%    MPKI:0.00
PC:11c3a     Total:7084709      MisBP:0   MisRate:0.00%    MPKI:0.00
PC:11c96     Total:27389      MisBP:0   MisRate:0.00%    MPKI:0.00
PC:11b22     Total:939998      MisBP:0   MisRate:0.00%    MPKI:0.00
PC:11cbe     Total:26821      MisBP:0   MisRate:0.00%    MPKI:0.00
PC:11cc2     Total:62025      MisBP:0   MisRate:0.00%    MPKI:0.00
PC:11cc6     Total:62025      MisBP:0   MisRate:0.00%    MPKI:0.00
PC:11cca     Total:62025      MisBP:0   MisRate:0.00%    MPKI:0.00
PC:11ccc     Total:62025      MisBP:0   MisRate:0.00%    MPKI:0.00
PC:11cce     Total:430674      MisBP:0   MisRate:0.00%    MPKI:0.00
PC:11c4e     Total:7585999      MisBP:0   MisRate:0.00%    MPKI:0.00
PC:11c60     Total:7433004      MisBP:0   MisRate:0.00%    MPKI:0.00
PC:109f2     Total:115      MisBP:0   MisRate:0.00%    MPKI:0.00
PC:11880     Total:108875      MisBP:0   MisRate:0.00%    MPKI:0.00
PC:11cba     Total:26969      MisBP:0   MisRate:0.00%    MPKI:0.00
PC:109dc     Total:256      MisBP:0   MisRate:0.00%    MPKI:0.00
PC:109e2     Total:128      MisBP:0   MisRate:0.00%    MPKI:0.00
PC:109ea     Total:127      MisBP:0   MisRate:0.00%    MPKI:0.00
PC:109ee     Total:126      MisBP:0   MisRate:0.00%    MPKI:0.00
PC:11b44     Total:3269514      MisBP:0   MisRate:0.00%    MPKI:0.00
PC:109f0     Total:118      MisBP:0   MisRate:0.00%    MPKI:0.00
PC:11b46     Total:3269425      MisBP:0   MisRate:0.00%    MPKI:0.00
PC:11cb8     Total:26974      MisBP:0   MisRate:0.00%    MPKI:0.00
PC:109f4     Total:115      MisBP:0   MisRate:0.00%    MPKI:0.00
PC:11b4a     Total:615384      MisBP:0   MisRate:0.00%    MPKI:0.00
PC:109f6     Total:115      MisBP:0   MisRate:0.00%    MPKI:0.00
PC:109f8     Total:115      MisBP:0   MisRate:0.00%    MPKI:0.00
PC:109fc     Total:4733      MisBP:0   MisRate:0.00%    MPKI:0.00
PC:11ba0     Total:17367      MisBP:0   MisRate:0.00%    MPKI:0.00
PC:10a4c     Total:4655      MisBP:0   MisRate:0.00%    MPKI:0.00
PC:11b34     Total:11123945      MisBP:0   MisRate:0.00%    MPKI:0.00
PC:11cac     Total:13      MisBP:0   MisRate:0.00%    MPKI:0.00
PC:11864     Total:983940      MisBP:0   MisRate:0.00%    MPKI:0.00
PC:11c9e     Total:27372      MisBP:0   MisRate:0.00%    MPKI:0.00
PC:11868     Total:979018      MisBP:0   MisRate:0.00%    MPKI:0.00
PC:11ca2     Total:27364      MisBP:0   MisRate:0.00%    MPKI:0.00
PC:1186a     Total:978771      MisBP:0   MisRate:0.00%    MPKI:0.00
PC:1186c     Total:971914      MisBP:0   MisRate:0.00%    MPKI:0.00
PC:11ca6     Total:40      MisBP:0   MisRate:0.00%    MPKI:0.00
PC:11870     Total:17205      MisBP:0   MisRate:0.00%    MPKI:0.00
PC:11caa     Total:13      MisBP:0   MisRate:0.00%    MPKI:0.00
PC:11ba2     Total:17359      MisBP:0   MisRate:0.00%    MPKI:0.00
PC:11874     Total:1031326      MisBP:0   MisRate:0.00%    MPKI:0.00
PC:11876     Total:1031286      MisBP:0   MisRate:0.00%    MPKI:0.00
PC:11cb0     Total:13      MisBP:0   MisRate:0.00%    MPKI:0.00
PC:11878     Total:1025851      MisBP:0   MisRate:0.00%    MPKI:0.00
PC:1187a     Total:1025905      MisBP:0   MisRate:0.00%    MPKI:0.00
PC:11cb4     Total:13      MisBP:0   MisRate:0.00%    MPKI:0.00
PC:1187c     Total:1019291      MisBP:0   MisRate:0.00%    MPKI:0.00
PC:11cb6     Total:13      MisBP:0   MisRate:0.00%    MPKI:0.00
PC:10a30     Total:31269051      MisBP:0   MisRate:0.00%    MPKI:0.00
PC:11b7e     Total:480059      MisBP:0   MisRate:0.00%    MPKI:0.00
PC:10a2a     Total:2883990      MisBP:0   MisRate:0.00%    MPKI:0.00
PC:11b12     Total:965992      MisBP:0   MisRate:0.00%    MPKI:0.00
PC:11b80     Total:3335854      MisBP:0   MisRate:0.00%    MPKI:0.00
PC:10a2c     Total:2879425      MisBP:0   MisRate:0.00%    MPKI:0.00
PC:11b82     Total:3335819      MisBP:0   MisRate:0.00%    MPKI:0.00
PC:10a2e     Total:31891011      MisBP:0   MisRate:0.00%    MPKI:0.00
PC:11b16     Total:965983      MisBP:0   MisRate:0.00%    MPKI:0.00
PC:11b84     Total:3335777      MisBP:0   MisRate:0.00%    MPKI:0.00
PC:10a7c     Total:1      MisBP:0   MisRate:0.00%    MPKI:0.00
PC:11b1a     Total:940043      MisBP:0   MisRate:0.00%    MPKI:0.00
PC:11b88     Total:5119699      MisBP:0   MisRate:0.00%    MPKI:0.00
PC:10a34     Total:32396748      MisBP:0   MisRate:0.00%    MPKI:0.00
PC:11b8a     Total:5119296      MisBP:0   MisRate:0.00%    MPKI:0.00
PC:10a36     Total:32143131      MisBP:0   MisRate:0.00%    MPKI:0.00
PC:11b1e     Total:940035      MisBP:0   MisRate:0.00%    MPKI:0.00
PC:11b8c     Total:4318540      MisBP:0   MisRate:0.00%    MPKI:0.00
PC:10a3a     Total:2285      MisBP:0   MisRate:0.00%    MPKI:0.00
PC:109ec     Total:127      MisBP:0   MisRate:0.00%    MPKI:0.00
PC:10a4e     Total:4655      MisBP:0   MisRate:0.00%    MPKI:0.00
PC:11ba4     Total:17248      MisBP:0   MisRate:0.00%    MPKI:0.00
PC:10a50     Total:1      MisBP:0   MisRate:0.00%    MPKI:0.00
PC:11b38     Total:5561831      MisBP:0   MisRate:0.00%    MPKI:0.00
PC:11ba8     Total:17232      MisBP:0   MisRate:0.00%    MPKI:0.00
PC:10a54     Total:1      MisBP:0   MisRate:0.00%    MPKI:0.00
PC:11b3c     Total:5561197      MisBP:0   MisRate:0.00%    MPKI:0.00
PC:11bac     Total:17232      MisBP:0   MisRate:0.00%    MPKI:0.00
PC:10a58     Total:4      MisBP:0   MisRate:0.00%    MPKI:0.00
PC:1171a     Total:24217      MisBP:0   MisRate:0.00%    MPKI:0.00
PC:11b40     Total:3269621      MisBP:0   MisRate:0.00%    MPKI:0.00
PC:11b4e     Total:12985014      MisBP:0   MisRate:0.00%    MPKI:0.00
PC:109fe     Total:2961638      MisBP:0   MisRate:0.00%    MPKI:0.00
PC:11b52     Total:6486458      MisBP:0   MisRate:0.00%    MPKI:0.00
PC:11bc2     Total:6108      MisBP:0   MisRate:0.00%    MPKI:0.00
PC:10a6e     Total:1      MisBP:0   MisRate:0.00%    MPKI:0.00
PC:10a02     Total:2911573      MisBP:0   MisRate:0.00%    MPKI:0.00
PC:11b56     Total:6461199      MisBP:0   MisRate:0.00%    MPKI:0.00
PC:11c42     Total:6995590      MisBP:0   MisRate:0.00%    MPKI:0.00
PC:117ba     Total:55306      MisBP:0   MisRate:0.00%    MPKI:0.00
PC:117b8     Total:55422      MisBP:0   MisRate:0.00%    MPKI:0.00
PC:11bf2     Total:751228      MisBP:0   MisRate:0.00%    MPKI:0.00
PC:1181c     Total:189      MisBP:0   MisRate:0.00%    MPKI:0.00
PC:11810     Total:41219      MisBP:0   MisRate:0.00%    MPKI:0.00
PC:11c4a     Total:6949652      MisBP:0   MisRate:0.00%    MPKI:0.00
PC:1180c     Total:41296      MisBP:0   MisRate:0.00%    MPKI:0.00
PC:11c46     Total:6975278      MisBP:0   MisRate:0.00%    MPKI:0.00
PC:11808     Total:20081      MisBP:0   MisRate:0.00%    MPKI:0.00
PC:11bf6     Total:751166      MisBP:0   MisRate:0.00%    MPKI:0.00
PC:11804     Total:20093      MisBP:0   MisRate:0.00%    MPKI:0.00
PC:11c3e     Total:7073741      MisBP:0   MisRate:0.00%    MPKI:0.00
PC:117f2     Total:51676      MisBP:0   MisRate:0.00%    MPKI:0.00
PC:117b4     Total:55457      MisBP:0   MisRate:0.00%    MPKI:0.00
PC:11bee     Total:751423      MisBP:0   MisRate:0.00%    MPKI:0.00
PC:117b2     Total:55468      MisBP:0   MisRate:0.00%    MPKI:0.00
PC:11bec     Total:751739      MisBP:0   MisRate:0.00%    MPKI:0.00
PC:117b0     Total:55781      MisBP:0   MisRate:0.00%    MPKI:0.00
PC:117c6     Total:53054      MisBP:0   MisRate:0.00%    MPKI:0.00
PC:117d8     Total:50707      MisBP:0   MisRate:0.00%    MPKI:0.00
PC:11c12     Total:15675      MisBP:0   MisRate:0.00%    MPKI:0.00
PC:117d6     Total:50726      MisBP:0   MisRate:0.00%    MPKI:0.00
PC:117d2     Total:52844      MisBP:0   MisRate:0.00%    MPKI:0.00
PC:117d0     Total:52859      MisBP:0   MisRate:0.00%    MPKI:0.00
PC:11c0a     Total:744356      MisBP:0   MisRate:0.00%    MPKI:0.00
PC:117cc     Total:52874      MisBP:0   MisRate:0.00%    MPKI:0.00
PC:117c8     Total:52926      MisBP:0   MisRate:0.00%    MPKI:0.00
PC:11c02     Total:744908      MisBP:0   MisRate:0.00%    MPKI:0.00
PC:11bea     Total:751902      MisBP:0   MisRate:0.00%    MPKI:0.00
PC:11c00     Total:745078      MisBP:0   MisRate:0.00%    MPKI:0.00
PC:117c4     Total:53068      MisBP:0   MisRate:0.00%    MPKI:0.00
PC:117c2     Total:53019      MisBP:0   MisRate:0.00%    MPKI:0.00
PC:11bfc     Total:750994      MisBP:0   MisRate:0.00%    MPKI:0.00
PC:117c0     Total:53029      MisBP:0   MisRate:0.00%    MPKI:0.00
PC:11bfa     Total:751041      MisBP:0   MisRate:0.00%    MPKI:0.00
PC:117be     Total:55132      MisBP:0   MisRate:0.00%    MPKI:0.00
PC:117bc     Total:55238      MisBP:0   MisRate:0.00%    MPKI:0.00
PC:118ca     Total:3733431      MisBP:0   MisRate:0.00%    MPKI:0.00
PC:11bce     Total:762584      MisBP:0   MisRate:0.00%    MPKI:0.00
PC:11792     Total:47594      MisBP:0   MisRate:0.00%    MPKI:0.00
PC:11790     Total:47884      MisBP:0   MisRate:0.00%    MPKI:0.00
PC:1178e     Total:47888      MisBP:0   MisRate:0.00%    MPKI:0.00
PC:1178c     Total:47923      MisBP:0   MisRate:0.00%    MPKI:0.00
PC:1178a     Total:47946      MisBP:0   MisRate:0.00%    MPKI:0.00
PC:11788     Total:47979      MisBP:0   MisRate:0.00%    MPKI:0.00
PC:11786     Total:48063      MisBP:0   MisRate:0.00%    MPKI:0.00
PC:11782     Total:48174      MisBP:0   MisRate:0.00%    MPKI:0.00
PC:11794     Total:47581      MisBP:0   MisRate:0.00%    MPKI:0.00
PC:1177c     Total:49838      MisBP:0   MisRate:0.00%    MPKI:0.00
PC:1177a     Total:49854      MisBP:0   MisRate:0.00%    MPKI:0.00
PC:11776     Total:4351924      MisBP:0   MisRate:0.00%    MPKI:0.00
PC:11774     Total:4361286      MisBP:0   MisRate:0.00%    MPKI:0.00
PC:11770     Total:4837433      MisBP:0   MisRate:0.00%    MPKI:0.00
PC:1176e     Total:4862603      MisBP:0   MisRate:0.00%    MPKI:0.00
PC:11ba6     Total:17237      MisBP:0   MisRate:0.00%    MPKI:0.00
PC:1176a     Total:595580      MisBP:0   MisRate:0.00%    MPKI:0.00
PC:11bde     Total:760049      MisBP:0   MisRate:0.00%    MPKI:0.00
PC:117ae     Total:56207      MisBP:0   MisRate:0.00%    MPKI:0.00
PC:117ac     Total:56225      MisBP:0   MisRate:0.00%    MPKI:0.00
PC:11be6     Total:759320      MisBP:0   MisRate:0.00%    MPKI:0.00
PC:117aa     Total:46379      MisBP:0   MisRate:0.00%    MPKI:0.00
PC:11be4     Total:759542      MisBP:0   MisRate:0.00%    MPKI:0.00
PC:11be2     Total:759730      MisBP:0   MisRate:0.00%    MPKI:0.00
PC:117a6     Total:50998      MisBP:0   MisRate:0.00%    MPKI:0.00
PC:11be0     Total:759919      MisBP:0   MisRate:0.00%    MPKI:0.00
PC:117a4     Total:51006      MisBP:0   MisRate:0.00%    MPKI:0.00
PC:11c14     Total:15675      MisBP:0   MisRate:0.00%    MPKI:0.00
PC:117a2     Total:51020      MisBP:0   MisRate:0.00%    MPKI:0.00
PC:11bdc     Total:760359      MisBP:0   MisRate:0.00%    MPKI:0.00
PC:1179e     Total:35264      MisBP:0   MisRate:0.00%    MPKI:0.00
PC:11bd8     Total:760865      MisBP:0   MisRate:0.00%    MPKI:0.00
PC:1179c     Total:47605      MisBP:0   MisRate:0.00%    MPKI:0.00
PC:11bd6     Total:761002      MisBP:0   MisRate:0.00%    MPKI:0.00
PC:1179a     Total:47636      MisBP:0   MisRate:0.00%    MPKI:0.00
PC:11796     Total:47464      MisBP:0   MisRate:0.00%    MPKI:0.00
PC:11ab0     Total:719      MisBP:0   MisRate:0.00%    MPKI:0.00
PC:1194a     Total:549      MisBP:0   MisRate:0.00%    MPKI:0.00
PC:11948     Total:550      MisBP:0   MisRate:0.00%    MPKI:0.00
PC:11946     Total:552      MisBP:0   MisRate:0.00%    MPKI:0.00
PC:11944     Total:553      MisBP:0   MisRate:0.00%    MPKI:0.00
PC:11940     Total:631      MisBP:0   MisRate:0.00%    MPKI:0.00
PC:11abc     Total:2      MisBP:0   MisRate:0.00%    MPKI:0.00
PC:11ab8     Total:2      MisBP:0   MisRate:0.00%    MPKI:0.00
PC:11ab6     Total:2      MisBP:0   MisRate:0.00%    MPKI:0.00
PC:11ab4     Total:86      MisBP:0   MisRate:0.00%    MPKI:0.00
PC:1194c     Total:548      MisBP:0   MisRate:0.00%    MPKI:0.00
PC:11aae     Total:719      MisBP:0   MisRate:0.00%    MPKI:0.00
PC:11aac     Total:719      MisBP:0   MisRate:0.00%    MPKI:0.00
PC:11aaa     Total:719      MisBP:0   MisRate:0.00%    MPKI:0.00
PC:10a46     Total:2778034      MisBP:0   MisRate:0.00%    MPKI:0.00
PC:10a0c     Total:2858491      MisBP:0   MisRate:0.00%    MPKI:0.00
PC:10a10     Total:13401009      MisBP:0   MisRate:0.00%    MPKI:0.00
PC:10a1e     Total:13076497      MisBP:0   MisRate:0.00%    MPKI:0.00
PC:11bc6     Total:6102      MisBP:0   MisRate:0.00%    MPKI:0.00
PC:1195e     Total:535      MisBP:0   MisRate:0.00%    MPKI:0.00
PC:11884     Total:2901      MisBP:0   MisRate:0.00%    MPKI:0.00
PC:11970     Total:199      MisBP:0   MisRate:0.00%    MPKI:0.00
PC:1196e     Total:472      MisBP:0   MisRate:0.00%    MPKI:0.00
PC:1196a     Total:450      MisBP:0   MisRate:0.00%    MPKI:0.00
PC:11968     Total:450      MisBP:0   MisRate:0.00%    MPKI:0.00
PC:11966     Total:453      MisBP:0   MisRate:0.00%    MPKI:0.00
PC:11964     Total:464      MisBP:0   MisRate:0.00%    MPKI:0.00
PC:11962     Total:475      MisBP:0   MisRate:0.00%    MPKI:0.00
PC:11960     Total:476      MisBP:0   MisRate:0.00%    MPKI:0.00
PC:1189e     Total:14867      MisBP:0   MisRate:0.00%    MPKI:0.00
PC:1195c     Total:429      MisBP:0   MisRate:0.00%    MPKI:0.00
PC:1195a     Total:430      MisBP:0   MisRate:0.00%    MPKI:0.00
PC:11958     Total:430      MisBP:0   MisRate:0.00%    MPKI:0.00
PC:11956     Total:431      MisBP:0   MisRate:0.00%    MPKI:0.00
PC:11954     Total:377      MisBP:0   MisRate:0.00%    MPKI:0.00
PC:11952     Total:377      MisBP:0   MisRate:0.00%    MPKI:0.00
PC:11950     Total:377      MisBP:0   MisRate:0.00%    MPKI:0.00
PC:1194e     Total:545      MisBP:0   MisRate:0.00%    MPKI:0.00
PC:11840     Total:188      MisBP:0   MisRate:0.00%    MPKI:0.00
PC:119c0     Total:25021      MisBP:0   MisRate:0.00%    MPKI:0.00
PC:11b7c     Total:480059      MisBP:0   MisRate:0.00%    MPKI:0.00
PC:10a26     Total:12980405      MisBP:0   MisRate:0.00%    MPKI:0.00
PC:11cfc     Total:1      MisBP:0   MisRate:0.00%    MPKI:0.00
PC:11cfa     Total:1      MisBP:0   MisRate:0.00%    MPKI:0.00
PC:11cf6     Total:1      MisBP:0   MisRate:0.00%    MPKI:0.00
PC:11cf4     Total:1      MisBP:0   MisRate:0.00%    MPKI:0.00
PC:11cf0     Total:1      MisBP:0   MisRate:0.00%    MPKI:0.00
PC:11844     Total:187      MisBP:0   MisRate:0.00%    MPKI:0.00
PC:119c4     Total:25020      MisBP:0   MisRate:0.00%    MPKI:0.00
PC:11832     Total:65      MisBP:0   MisRate:0.00%    MPKI:0.00
PC:11c6c     Total:7298690      MisBP:0   MisRate:0.00%    MPKI:0.00
PC:1182a     Total:61      MisBP:0   MisRate:0.00%    MPKI:0.00
PC:11c64     Total:7401654      MisBP:0   MisRate:0.00%    MPKI:0.00
PC:11824     Total:61      MisBP:0   MisRate:0.00%    MPKI:0.00
PC:11c5e     Total:7446920      MisBP:0   MisRate:0.00%    MPKI:0.00
PC:117dc     Total:50639      MisBP:0   MisRate:0.00%    MPKI:0.00
PC:117da     Total:50644      MisBP:0   MisRate:0.00%    MPKI:0.00
PC:119d8     Total:15822      MisBP:0   MisRate:0.00%    MPKI:0.00
PC:1189c     Total:14867      MisBP:0   MisRate:0.00%    MPKI:0.00
PC:11898     Total:14869      MisBP:0   MisRate:0.00%    MPKI:0.00
PC:11896     Total:14871      MisBP:0   MisRate:0.00%    MPKI:0.00
PC:11894     Total:14872      MisBP:0   MisRate:0.00%    MPKI:0.00
PC:11892     Total:14872      MisBP:0   MisRate:0.00%    MPKI:0.00
PC:1188e     Total:104700      MisBP:0   MisRate:0.00%    MPKI:0.00
PC:1188c     Total:14966      MisBP:0   MisRate:0.00%    MPKI:0.00
PC:119dc     Total:15819      MisBP:0   MisRate:0.00%    MPKI:0.00
PC:119da     Total:15822      MisBP:0   MisRate:0.00%    MPKI:0.00
PC:1177e     Total:48112      MisBP:0   MisRate:0.00%    MPKI:0.00
PC:119d6     Total:15823      MisBP:0   MisRate:0.00%    MPKI:0.00
PC:119d2     Total:31649      MisBP:0   MisRate:0.00%    MPKI:0.00
PC:119d0     Total:25016      MisBP:0   MisRate:0.00%    MPKI:0.00
PC:119ce     Total:25017      MisBP:0   MisRate:0.00%    MPKI:0.00
PC:119cc     Total:25018      MisBP:0   MisRate:0.00%    MPKI:0.00
PC:119ca     Total:25019      MisBP:0   MisRate:0.00%    MPKI:0.00
PC:119c8     Total:25020      MisBP:0   MisRate:0.00%    MPKI:0.00
PC:119c6     Total:25020      MisBP:0   MisRate:0.00%    MPKI:0.00
PC:11938     Total:697      MisBP:0   MisRate:0.00%    MPKI:0.00
PC:1192c     Total:848772      MisBP:0   MisRate:0.00%    MPKI:0.00
PC:11828     Total:61      MisBP:0   MisRate:0.00%    MPKI:0.00
PC:11c62     Total:7416573      MisBP:0   MisRate:0.00%    MPKI:0.00
PC:11a2a     Total:26521      MisBP:0   MisRate:0.00%    MPKI:0.00
PC:118b4     Total:1658695      MisBP:0   MisRate:0.00%    MPKI:0.00
PC:11834     Total:65      MisBP:0   MisRate:0.00%    MPKI:0.00
PC:11cee     Total:1      MisBP:0   MisRate:0.00%    MPKI:0.00
PC:11728     Total:24247      MisBP:0   MisRate:0.00%    MPKI:0.00
PC:11a36     Total:26365      MisBP:0   MisRate:0.00%    MPKI:0.00
PC:11b62     Total:3419030      MisBP:0   MisRate:0.00%    MPKI:0.00
PC:1192a     Total:850717      MisBP:0   MisRate:0.00%    MPKI:0.00
PC:11a28     Total:26539      MisBP:0   MisRate:0.00%    MPKI:0.00
PC:118b2     Total:1676968      MisBP:0   MisRate:0.00%    MPKI:0.00
PC:11726     Total:24265      MisBP:0   MisRate:0.00%    MPKI:0.00
PC:10a78     Total:1      MisBP:0   MisRate:0.00%    MPKI:0.00
PC:11928     Total:21723      MisBP:0   MisRate:0.00%    MPKI:0.00
PC:118b0     Total:1677485      MisBP:0   MisRate:0.00%    MPKI:0.00
PC:1182c     Total:67      MisBP:0   MisRate:0.00%    MPKI:0.00
PC:11a32     Total:26374      MisBP:0   MisRate:0.00%    MPKI:0.00
PC:11c20     Total:15669      MisBP:0   MisRate:0.00%    MPKI:0.00
PC:11b6a     Total:938463      MisBP:0   MisRate:0.00%    MPKI:0.00
PC:11932     Total:2      MisBP:0   MisRate:0.00%    MPKI:0.00
PC:1182e     Total:67      MisBP:0   MisRate:0.00%    MPKI:0.00
PC:11a30     Total:26579      MisBP:0   MisRate:0.00%    MPKI:0.00
PC:118ba     Total:1633749      MisBP:0   MisRate:0.00%    MPKI:0.00
PC:11930     Total:1236179      MisBP:0   MisRate:0.00%    MPKI:0.00
PC:11cea     Total:2      MisBP:0   MisRate:0.00%    MPKI:0.00
PC:11c66     Total:7375807      MisBP:0   MisRate:0.00%    MPKI:0.00
PC:11a2e     Total:26584      MisBP:0   MisRate:0.00%    MPKI:0.00
PC:118b8     Total:1634582      MisBP:0   MisRate:0.00%    MPKI:0.00
PC:1172c     Total:23467      MisBP:0   MisRate:0.00%    MPKI:0.00
PC:10a12     Total:15732864      MisBP:0   MisRate:0.00%    MPKI:0.00
PC:1192e     Total:1236280      MisBP:0   MisRate:0.00%    MPKI:0.00
PC:118b6     Total:1636736      MisBP:0   MisRate:0.00%    MPKI:0.00
PC:118c2     Total:6029663      MisBP:0   MisRate:0.00%    MPKI:0.00
PC:11736     Total:22881      MisBP:0   MisRate:0.00%    MPKI:0.00
PC:11c58     Total:7505792      MisBP:0   MisRate:0.00%    MPKI:0.00
PC:11a20     Total:26882      MisBP:0   MisRate:0.00%    MPKI:0.00
PC:118aa     Total:1689954      MisBP:0   MisRate:0.00%    MPKI:0.00
PC:11ce4     Total:1      MisBP:0   MisRate:0.00%    MPKI:0.00
PC:1171e     Total:24219      MisBP:0   MisRate:0.00%    MPKI:0.00
PC:11bc4     Total:6107      MisBP:0   MisRate:0.00%    MPKI:0.00
PC:10a70     Total:1      MisBP:0   MisRate:0.00%    MPKI:0.00
PC:10a04     Total:2906249      MisBP:0   MisRate:0.00%    MPKI:0.00
PC:11922     Total:21917      MisBP:0   MisRate:0.00%    MPKI:0.00
PC:11920     Total:22002      MisBP:0   MisRate:0.00%    MPKI:0.00
PC:1173a     Total:22853      MisBP:0   MisRate:0.00%    MPKI:0.00
PC:10a20     Total:13008425      MisBP:0   MisRate:0.00%    MPKI:0.00
PC:11b74     Total:1070777      MisBP:0   MisRate:0.00%    MPKI:0.00
PC:1193c     Total:686      MisBP:0   MisRate:0.00%    MPKI:0.00
PC:11838     Total:65      MisBP:0   MisRate:0.00%    MPKI:0.00
PC:11a3a     Total:26195      MisBP:0   MisRate:0.00%    MPKI:0.00
PC:118c6     Total:6000880      MisBP:0   MisRate:0.00%    MPKI:0.00
PC:11822     Total:62      MisBP:0   MisRate:0.00%    MPKI:0.00
PC:11724     Total:24265      MisBP:0   MisRate:0.00%    MPKI:0.00
PC:11bca     Total:11220      MisBP:0   MisRate:0.00%    MPKI:0.00
PC:11b70     Total:510480      MisBP:0   MisRate:0.00%    MPKI:0.00
PC:10a76     Total:1      MisBP:0   MisRate:0.00%    MPKI:0.00
PC:10a0a     Total:2860609      MisBP:0   MisRate:0.00%    MPKI:0.00
PC:11b5e     Total:3419081      MisBP:0   MisRate:0.00%    MPKI:0.00
PC:11926     Total:21786      MisBP:0   MisRate:0.00%    MPKI:0.00
PC:10a1c     Total:13080914      MisBP:0   MisRate:0.00%    MPKI:0.00
PC:11c68     Total:7353035      MisBP:0   MisRate:0.00%    MPKI:0.00
PC:11c5c     Total:7464800      MisBP:0   MisRate:0.00%    MPKI:0.00
PC:11a24     Total:26571      MisBP:0   MisRate:0.00%    MPKI:0.00
PC:118ac     Total:1680497      MisBP:0   MisRate:0.00%    MPKI:0.00
PC:11ce6     Total:1      MisBP:0   MisRate:0.00%    MPKI:0.00
PC:11720     Total:24289      MisBP:0   MisRate:0.00%    MPKI:0.00
PC:10a06     Total:2898713      MisBP:0   MisRate:0.00%    MPKI:0.00
PC:11b5a     Total:3427311      MisBP:0   MisRate:0.00%    MPKI:0.00
PC:11754     Total:20124      MisBP:0   MisRate:0.00%    MPKI:0.00
PC:11716     Total:24219      MisBP:0   MisRate:0.00%    MPKI:0.00
PC:11b5c     Total:3427234      MisBP:0   MisRate:0.00%    MPKI:0.00
PC:10a08     Total:2862302      MisBP:0   MisRate:0.00%    MPKI:0.00
PC:10a74     Total:1      MisBP:0   MisRate:0.00%    MPKI:0.00
PC:11bc8     Total:11224      MisBP:0   MisRate:0.00%    MPKI:0.00
PC:11b78     Total:1070773      MisBP:0   MisRate:0.00%    MPKI:0.00
PC:10a24     Total:12988457      MisBP:0   MisRate:0.00%    MPKI:0.00
PC:1173e     Total:21749      MisBP:0   MisRate:0.00%    MPKI:0.00
PC:11742     Total:493      MisBP:0   MisRate:0.00%    MPKI:0.00
PC:11746     Total:493      MisBP:0   MisRate:0.00%    MPKI:0.00
PC:11748     Total:19692      MisBP:0   MisRate:0.00%    MPKI:0.00
PC:1174c     Total:20165      MisBP:0   MisRate:0.00%    MPKI:0.00
PC:11750     Total:20160      MisBP:0   MisRate:0.00%    MPKI:0.00
PC:11c1c     Total:15670      MisBP:0   MisRate:0.00%    MPKI:0.00
PC:11752     Total:20124      MisBP:0   MisRate:0.00%    MPKI:0.00
PC:11722     Total:24288      MisBP:0   MisRate:0.00%    MPKI:0.00
PC:11758     Total:20118      MisBP:0   MisRate:0.00%    MPKI:0.00
PC:11b94     Total:17409      MisBP:0   MisRate:0.00%    MPKI:0.00
PC:1175a     Total:20045      MisBP:0   MisRate:0.00%    MPKI:0.00
PC:1175c     Total:8103394      MisBP:0   MisRate:0.00%    MPKI:0.00
PC:11b98     Total:17408      MisBP:0   MisRate:0.00%    MPKI:0.00
PC:10a44     Total:2778230      MisBP:0   MisRate:0.00%    MPKI:0.00
PC:1175e     Total:8073385      MisBP:0   MisRate:0.00%    MPKI:0.00
PC:11760     Total:7836633      MisBP:0   MisRate:0.00%    MPKI:0.00
PC:11b9c     Total:17382      MisBP:0   MisRate:0.00%    MPKI:0.00
PC:11762     Total:7821044      MisBP:0   MisRate:0.00%    MPKI:0.00
PC:11b9e     Total:17368      MisBP:0   MisRate:0.00%    MPKI:0.00
PC:10a4a     Total:340      MisBP:0   MisRate:0.00%    MPKI:0.00
PC:11764     Total:7810336      MisBP:0   MisRate:0.00%    MPKI:0.00
PC:11766     Total:7802534      MisBP:0   MisRate:0.00%    MPKI:0.00
PC:117e2     Total:50591      MisBP:0   MisRate:0.00%    MPKI:0.00
PC:10a18     Total:13797843      MisBP:0   MisRate:0.00%    MPKI:0.00
PC:11732     Total:22885      MisBP:0   MisRate:0.00%    MPKI:0.00
PC:118be     Total:3682117      MisBP:0   MisRate:0.00%    MPKI:0.00
PC:118ce     Total:2763669      MisBP:0   MisRate:0.00%    MPKI:0.00
PC:11936     Total:2      MisBP:0   MisRate:0.00%    MPKI:0.00
PC:11b6e     Total:510480      MisBP:0   MisRate:0.00%    MPKI:0.00
PC:10a1a     Total:13790354      MisBP:0   MisRate:0.00%    MPKI:0.00
PC:11734     Total:22881      MisBP:0   MisRate:0.00%    MPKI:0.00
PC:118e8     Total:28306      MisBP:0   MisRate:0.00%    MPKI:0.00
PC:11934     Total:2      MisBP:0   MisRate:0.00%    MPKI:0.00
PC:118ae     Total:1677906      MisBP:0   MisRate:0.00%    MPKI:0.00
PC:119ec     Total:2661      MisBP:0   MisRate:0.00%    MPKI:0.00
PC:119e6     Total:26765      MisBP:0   MisRate:0.00%    MPKI:0.00
PC:11c6a     Total:7321313      MisBP:0   MisRate:0.00%    MPKI:0.00
PC:118e6     Total:28329      MisBP:0   MisRate:0.00%    MPKI:0.00
PC:10a68     Total:1      MisBP:0   MisRate:0.00%    MPKI:0.00
PC:118ee     Total:894553      MisBP:0   MisRate:0.00%    MPKI:0.00
PC:11c24     Total:15669      MisBP:0   MisRate:0.00%    MPKI:0.00
PC:117ea     Total:5406      MisBP:0   MisRate:0.00%    MPKI:0.00
PC:11830     Total:66      MisBP:0   MisRate:0.00%    MPKI:0.00
PC:11ca8     Total:40      MisBP:2   MisRate:5.00%    MPKI:0.00
PC:11bd0     Total:762517      MisBP:2   MisRate:0.00%    MPKI:0.00
PC:1196c     Total:450      MisBP:2   MisRate:0.44%    MPKI:0.00
PC:118ea     Total:140179      MisBP:2   MisRate:0.00%    MPKI:0.00
PC:11942     Total:631      MisBP:3   MisRate:0.48%    MPKI:0.00
PC:11858     Total:167      MisBP:4   MisRate:2.40%    MPKI:0.00
PC:11aa6     Total:1450      MisBP:15   MisRate:1.03%    MPKI:0.00
PC:11c36     Total:15703      MisBP:16   MisRate:0.10%    MPKI:0.00
PC:1183e     Total:215      MisBP:19   MisRate:8.84%    MPKI:0.00
PC:1183a     Total:65      MisBP:29   MisRate:44.62%    MPKI:0.00
PC:1181e     Total:189      MisBP:42   MisRate:22.22%    MPKI:0.00
PC:11740     Total:20384      MisBP:43   MisRate:0.21%    MPKI:0.00
PC:11a78     Total:16009      MisBP:96   MisRate:0.60%    MPKI:0.00
PC:10a48     Total:2770486      MisBP:120   MisRate:0.00%    MPKI:0.00
PC:1181a     Total:41203      MisBP:142   MisRate:0.34%    MPKI:0.00
PC:11730     Total:23453      MisBP:146   MisRate:0.62%    MPKI:0.00
PC:11bcc     Total:11200      MisBP:201   MisRate:1.79%    MPKI:0.00
PC:10a38     Total:31982707      MisBP:302   MisRate:0.00%    MPKI:0.00
PC:11872     Total:17205      MisBP:311   MisRate:1.81%    MPKI:0.00
PC:11910     Total:1288675      MisBP:337   MisRate:0.03%    MPKI:0.00
PC:10a3c     Total:2273      MisBP:339   MisRate:14.91%    MPKI:0.00
PC:11bc0     Total:10929      MisBP:404   MisRate:3.70%    MPKI:0.00
PC:118fe     Total:870001      MisBP:554   MisRate:0.06%    MPKI:0.00
PC:117e6     Total:50560      MisBP:722   MisRate:1.43%    MPKI:0.00
PC:119e4     Total:27370      MisBP:1037   MisRate:3.79%    MPKI:0.00
PC:11ca4     Total:27353      MisBP:1042   MisRate:3.81%    MPKI:0.00
PC:11860     Total:34943      MisBP:1323   MisRate:3.79%    MPKI:0.00
PC:11c94     Total:660282      MisBP:1333   MisRate:0.20%    MPKI:0.00
PC:119e8     Total:26650      MisBP:1540   MisRate:5.78%    MPKI:0.00
PC:11c74     Total:679745      MisBP:2025   MisRate:0.30%    MPKI:0.01
PC:1176c     Total:589067      MisBP:3323   MisRate:0.56%    MPKI:0.01
PC:11be8     Total:759263      MisBP:3912   MisRate:0.52%    MPKI:0.01
PC:11c56     Total:7542852      MisBP:4820   MisRate:0.06%    MPKI:0.02
PC:118e4     Total:2530047      MisBP:5585   MisRate:0.22%    MPKI:0.02
PC:11778     Total:4349909      MisBP:6265   MisRate:0.14%    MPKI:0.02
PC:117a8     Total:50987      MisBP:7745   MisRate:15.19%    MPKI:0.02
PC:11c0c     Total:744220      MisBP:8256   MisRate:1.11%    MPKI:0.03
PC:117f4     Total:51665      MisBP:9406   MisRate:18.21%    MPKI:0.03
PC:11802     Total:58265      MisBP:12247   MisRate:21.02%    MPKI:0.04
PC:1187e     Total:1019269      MisBP:14643   MisRate:1.44%    MPKI:0.05
PC:1186e     Total:971705      MisBP:14827   MisRate:1.53%    MPKI:0.05
PC:118c0     Total:3583401      MisBP:16652   MisRate:0.46%    MPKI:0.05
PC:11b68     Total:454738      MisBP:24532   MisRate:5.39%    MPKI:0.08
PC:11c4c     Total:6930267      MisBP:25137   MisRate:0.36%    MPKI:0.08
PC:109fa     Total:2617447      MisBP:69830   MisRate:2.67%    MPKI:0.23
PC:10a28     Total:12975717      MisBP:84741   MisRate:0.65%    MPKI:0.27
PC:1191c     Total:1264724      MisBP:92557   MisRate:7.32%    MPKI:0.30
PC:11b6c     Total:938448      MisBP:101536   MisRate:10.82%    MPKI:0.33
PC:118c8     Total:5975562      MisBP:143641   MisRate:2.40%    MPKI:0.46
PC:11b7a     Total:1070772      MisBP:208469   MisRate:19.47%    MPKI:0.67
PC:11768     Total:7781720      MisBP:324264   MisRate:4.17%    MPKI:1.05
PC:118a8     Total:2298478      MisBP:327543   MisRate:14.25%    MPKI:1.06
PC:11772     Total:4825012      MisBP:339791   MisRate:7.04%    MPKI:1.10
PC:11b66     Total:3418978      MisBP:344853   MisRate:10.09%    MPKI:1.11
PC:11b48     Total:3269386      MisBP:380502   MisRate:11.64%    MPKI:1.23
PC:10a0e     Total:2826231      MisBP:420431   MisRate:14.88%    MPKI:1.36
PC:11b86     Total:3335756      MisBP:425068   MisRate:12.74%    MPKI:1.37
PC:118cc     Total:3699395      MisBP:430854   MisRate:11.65%    MPKI:1.39
PC:11c6e     Total:7279726      MisBP:547961   MisRate:7.53%    MPKI:1.77
PC:11b3e     Total:5561007      MisBP:569189   MisRate:10.24%    MPKI:1.84
PC:11b58     Total:6459537      MisBP:611748   MisRate:9.47%    MPKI:1.97
PC:10a16     Total:15702809      MisBP:1085928   MisRate:6.92%    MPKI:3.50
PC:10a32     Total:30959258      MisBP:1451312   MisRate:4.69%    MPKI:4.68
Totfetch:982396305  TotInsts:310000000  TotMis : inf%   MPKI : 26.22
=============finish sim!!!!!!=============
Done running SimPoint!
