Global frequency set at 1000000000000 ticks per second
 Register [printBranch()] ExitCallback !!!!!!! 
gem5 Simulator System.  https://www.gem5.org
gem5 is copyrighted software; use the --copyright option for details.

gem5 version 22.0.0.2
gem5 compiled Sep  7 2022 00:42:18
gem5 started Sep  7 2022 01:25:58
gem5 executing on a100, pid 2711941
command line: /data/zxf/gem5/gem5-prof/build/ARM/gem5.fast --outdir=/data/zxf/checkpoint/spec2006/473.astar/prof/astar_ckp_1 /data/zxf/gem5/gem5-prof/configs/example/se.py --cpu-type O3CPU --cpu-clock 1GHz --num-cpu 1 --l1d-hwp-type=BOPPrefetcher --caches --l2cache --l1i_size 32kB --l1d_size 32kB --l2_size 1MB --l1i_assoc 8 --l1d_assoc 8 --l2_assoc 16 --cacheline_size 64 --mem-type DDR3_2133_8x8 --mem-size 16GB --restore-simpoint-checkpoint -r 1 --checkpoint-dir /data/zxf/checkpoint/spec2006/473.astar/ckpt -c astar_base.gcc41-64bit -o rivers.cfg

info: Standard input is not a terminal, disabling listeners.
Resuming from /data/zxf/checkpoint/spec2006/473.astar/ckpt/cpt.simpoint_00_inst_35390000000_weight_0.093774_interval_300000000_warmup_10000000
Resuming from SimPoint #0, start_inst:35390000000, weight:0.093774, interval:300000000, warmup:10000000
Switch at curTick count:10000
Switched CPUS @ tick 23674288584500
[(<m5.objects.ArmCPU.ArmAtomicSimpleCPU object at 0x7ff85a8f0bb0>, <m5.objects.ArmCPU.ArmO3CPU object at 0x7ff85a908e20>)]
switching cpus



+++++++++++++++++++++++++zxf print simpoint+++++++++++++++++++++++++++
Warmed up! Dumping and resetting stats!


=============start sim!!!!!!=============
PC:1161e     Total:604      MisBP:0   MisRate:0.00%    MPKI:0.00
PC:3f6a6     Total:7      MisBP:0   MisRate:0.00%    MPKI:0.00
PC:2cb42     Total:5      MisBP:0   MisRate:0.00%    MPKI:0.00
PC:2cb44     Total:5      MisBP:0   MisRate:0.00%    MPKI:0.00
PC:1161a     Total:605      MisBP:0   MisRate:0.00%    MPKI:0.00
PC:3f6aa     Total:7      MisBP:0   MisRate:0.00%    MPKI:0.00
PC:2cb46     Total:5      MisBP:0   MisRate:0.00%    MPKI:0.00
PC:1161c     Total:604      MisBP:0   MisRate:0.00%    MPKI:0.00
PC:1530e     Total:81      MisBP:0   MisRate:0.00%    MPKI:0.00
PC:3f6ac     Total:7      MisBP:0   MisRate:0.00%    MPKI:0.00
PC:15308     Total:81      MisBP:0   MisRate:0.00%    MPKI:0.00
PC:15310     Total:81      MisBP:0   MisRate:0.00%    MPKI:0.00
PC:3f6ae     Total:7      MisBP:0   MisRate:0.00%    MPKI:0.00
PC:2cb4c     Total:5      MisBP:0   MisRate:0.00%    MPKI:0.00
PC:11622     Total:1      MisBP:0   MisRate:0.00%    MPKI:0.00
PC:15314     Total:79      MisBP:0   MisRate:0.00%    MPKI:0.00
PC:3f6b2     Total:7      MisBP:0   MisRate:0.00%    MPKI:0.00
PC:2cb4e     Total:4      MisBP:0   MisRate:0.00%    MPKI:0.00
PC:11624     Total:86      MisBP:0   MisRate:0.00%    MPKI:0.00
PC:15316     Total:79      MisBP:0   MisRate:0.00%    MPKI:0.00
PC:11610     Total:18472      MisBP:0   MisRate:0.00%    MPKI:0.00
PC:2cb2a     Total:24      MisBP:0   MisRate:0.00%    MPKI:0.00
PC:11600     Total:22132      MisBP:0   MisRate:0.00%    MPKI:0.00
PC:3f690     Total:8      MisBP:0   MisRate:0.00%    MPKI:0.00
PC:3f698     Total:8      MisBP:0   MisRate:0.00%    MPKI:0.00
PC:152fc     Total:84      MisBP:0   MisRate:0.00%    MPKI:0.00
PC:3f69a     Total:8      MisBP:0   MisRate:0.00%    MPKI:0.00
PC:3f69c     Total:7      MisBP:0   MisRate:0.00%    MPKI:0.00
PC:1160e     Total:18474      MisBP:0   MisRate:0.00%    MPKI:0.00
PC:2cb3a     Total:16      MisBP:0   MisRate:0.00%    MPKI:0.00
PC:3f6b4     Total:7      MisBP:0   MisRate:0.00%    MPKI:0.00
PC:15302     Total:82      MisBP:0   MisRate:0.00%    MPKI:0.00
PC:3f6a0     Total:7      MisBP:0   MisRate:0.00%    MPKI:0.00
PC:11612     Total:18464      MisBP:0   MisRate:0.00%    MPKI:0.00
PC:15304     Total:81      MisBP:0   MisRate:0.00%    MPKI:0.00
PC:3f6a2     Total:7      MisBP:0   MisRate:0.00%    MPKI:0.00
PC:2cb3e     Total:5      MisBP:0   MisRate:0.00%    MPKI:0.00
PC:11614     Total:18357      MisBP:0   MisRate:0.00%    MPKI:0.00
PC:11616     Total:18356      MisBP:0   MisRate:0.00%    MPKI:0.00
PC:3f6de     Total:1      MisBP:0   MisRate:0.00%    MPKI:0.00
PC:3f6d2     Total:1      MisBP:0   MisRate:0.00%    MPKI:0.00
PC:11644     Total:25468      MisBP:0   MisRate:0.00%    MPKI:0.00
PC:15336     Total:35120      MisBP:0   MisRate:0.00%    MPKI:0.00
PC:3f6d4     Total:1      MisBP:0   MisRate:0.00%    MPKI:0.00
PC:11646     Total:25453      MisBP:0   MisRate:0.00%    MPKI:0.00
PC:11648     Total:25445      MisBP:0   MisRate:0.00%    MPKI:0.00
PC:1164c     Total:101      MisBP:0   MisRate:0.00%    MPKI:0.00
PC:1164e     Total:101      MisBP:0   MisRate:0.00%    MPKI:0.00
PC:15340     Total:66852      MisBP:0   MisRate:0.00%    MPKI:0.00
PC:11642     Total:25444      MisBP:0   MisRate:0.00%    MPKI:0.00
PC:11652     Total:100      MisBP:0   MisRate:0.00%    MPKI:0.00
PC:11654     Total:100      MisBP:0   MisRate:0.00%    MPKI:0.00
PC:11656     Total:100      MisBP:0   MisRate:0.00%    MPKI:0.00
PC:11658     Total:100      MisBP:0   MisRate:0.00%    MPKI:0.00
PC:1165c     Total:100      MisBP:0   MisRate:0.00%    MPKI:0.00
PC:1165e     Total:100      MisBP:0   MisRate:0.00%    MPKI:0.00
PC:11660     Total:97      MisBP:0   MisRate:0.00%    MPKI:0.00
PC:11662     Total:97      MisBP:0   MisRate:0.00%    MPKI:0.00
PC:11666     Total:95      MisBP:0   MisRate:0.00%    MPKI:0.00
PC:11636     Total:26531      MisBP:0   MisRate:0.00%    MPKI:0.00
PC:11626     Total:602      MisBP:0   MisRate:0.00%    MPKI:0.00
PC:1162a     Total:26437      MisBP:0   MisRate:0.00%    MPKI:0.00
PC:1162e     Total:26433      MisBP:0   MisRate:0.00%    MPKI:0.00
PC:15320     Total:79      MisBP:0   MisRate:0.00%    MPKI:0.00
PC:3f6be     Total:1      MisBP:0   MisRate:0.00%    MPKI:0.00
PC:11630     Total:26422      MisBP:0   MisRate:0.00%    MPKI:0.00
PC:15324     Total:79      MisBP:0   MisRate:0.00%    MPKI:0.00
PC:3f6c2     Total:1      MisBP:0   MisRate:0.00%    MPKI:0.00
PC:11634     Total:26634      MisBP:0   MisRate:0.00%    MPKI:0.00
PC:116fe     Total:7706      MisBP:0   MisRate:0.00%    MPKI:0.00
PC:15328     Total:79      MisBP:0   MisRate:0.00%    MPKI:0.00
PC:3f6c6     Total:1      MisBP:0   MisRate:0.00%    MPKI:0.00
PC:11638     Total:26486      MisBP:0   MisRate:0.00%    MPKI:0.00
PC:3f6c8     Total:1      MisBP:0   MisRate:0.00%    MPKI:0.00
PC:1163a     Total:26444      MisBP:0   MisRate:0.00%    MPKI:0.00
PC:1163e     Total:25450      MisBP:0   MisRate:0.00%    MPKI:0.00
PC:15330     Total:35139      MisBP:0   MisRate:0.00%    MPKI:0.00
PC:3f6ce     Total:1      MisBP:0   MisRate:0.00%    MPKI:0.00
PC:3f686     Total:8      MisBP:0   MisRate:0.00%    MPKI:0.00
PC:2f4b0     Total:6      MisBP:0   MisRate:0.00%    MPKI:0.00
PC:152de     Total:89      MisBP:0   MisRate:0.00%    MPKI:0.00
PC:3f67c     Total:9      MisBP:0   MisRate:0.00%    MPKI:0.00
PC:152e0     Total:89      MisBP:0   MisRate:0.00%    MPKI:0.00
PC:3f67e     Total:9      MisBP:0   MisRate:0.00%    MPKI:0.00
PC:152e4     Total:89      MisBP:0   MisRate:0.00%    MPKI:0.00
PC:3f682     Total:8      MisBP:0   MisRate:0.00%    MPKI:0.00
PC:115f6     Total:23054      MisBP:0   MisRate:0.00%    MPKI:0.00
PC:152e8     Total:84      MisBP:0   MisRate:0.00%    MPKI:0.00
PC:4a9da     Total:26      MisBP:0   MisRate:0.00%    MPKI:0.00
PC:2cb22     Total:24      MisBP:0   MisRate:0.00%    MPKI:0.00
PC:115f8     Total:23053      MisBP:0   MisRate:0.00%    MPKI:0.00
PC:2cb26     Total:24      MisBP:0   MisRate:0.00%    MPKI:0.00
PC:115fc     Total:23036      MisBP:0   MisRate:0.00%    MPKI:0.00
PC:115fe     Total:23016      MisBP:0   MisRate:0.00%    MPKI:0.00
PC:152f0     Total:84      MisBP:0   MisRate:0.00%    MPKI:0.00
PC:3f68e     Total:8      MisBP:0   MisRate:0.00%    MPKI:0.00
PC:4a9ba     Total:31      MisBP:0   MisRate:0.00%    MPKI:0.00
PC:2f490     Total:423      MisBP:0   MisRate:0.00%    MPKI:0.00
PC:115e0     Total:33032      MisBP:0   MisRate:0.00%    MPKI:0.00
PC:2cb04     Total:28      MisBP:0   MisRate:0.00%    MPKI:0.00
PC:115da     Total:33052      MisBP:0   MisRate:0.00%    MPKI:0.00
PC:4a9c8     Total:26      MisBP:0   MisRate:0.00%    MPKI:0.00
PC:2f49e     Total:389      MisBP:0   MisRate:0.00%    MPKI:0.00
PC:152cc     Total:623      MisBP:0   MisRate:0.00%    MPKI:0.00
PC:3f66a     Total:90      MisBP:0   MisRate:0.00%    MPKI:0.00
PC:152d0     Total:89      MisBP:0   MisRate:0.00%    MPKI:0.00
PC:3f66e     Total:9      MisBP:0   MisRate:0.00%    MPKI:0.00
PC:2cb0a     Total:28      MisBP:0   MisRate:0.00%    MPKI:0.00
PC:117a8     Total:10739      MisBP:0   MisRate:0.00%    MPKI:0.00
PC:2f4a4     Total:387      MisBP:0   MisRate:0.00%    MPKI:0.00
PC:115e2     Total:33032      MisBP:0   MisRate:0.00%    MPKI:0.00
PC:3f672     Total:27      MisBP:0   MisRate:0.00%    MPKI:0.00
PC:115e6     Total:33023      MisBP:0   MisRate:0.00%    MPKI:0.00
PC:3f676     Total:9      MisBP:0   MisRate:0.00%    MPKI:0.00
PC:152dc     Total:89      MisBP:0   MisRate:0.00%    MPKI:0.00
PC:3f67a     Total:9      MisBP:0   MisRate:0.00%    MPKI:0.00
PC:2cb16     Total:24      MisBP:0   MisRate:0.00%    MPKI:0.00
PC:116e4     Total:12582      MisBP:0   MisRate:0.00%    MPKI:0.00
PC:116c6     Total:13340      MisBP:0   MisRate:0.00%    MPKI:0.00
PC:116c8     Total:13330      MisBP:0   MisRate:0.00%    MPKI:0.00
PC:116cc     Total:13329      MisBP:0   MisRate:0.00%    MPKI:0.00
PC:116d0     Total:13326      MisBP:0   MisRate:0.00%    MPKI:0.00
PC:116d2     Total:13322      MisBP:0   MisRate:0.00%    MPKI:0.00
PC:116d4     Total:13320      MisBP:0   MisRate:0.00%    MPKI:0.00
PC:116da     Total:12591      MisBP:0   MisRate:0.00%    MPKI:0.00
PC:116de     Total:12587      MisBP:0   MisRate:0.00%    MPKI:0.00
PC:116e2     Total:12585      MisBP:0   MisRate:0.00%    MPKI:0.00
PC:116c2     Total:13344      MisBP:0   MisRate:0.00%    MPKI:0.00
PC:116e6     Total:12580      MisBP:0   MisRate:0.00%    MPKI:0.00
PC:116e8     Total:12576      MisBP:0   MisRate:0.00%    MPKI:0.00
PC:116ea     Total:12576      MisBP:0   MisRate:0.00%    MPKI:0.00
PC:116f0     Total:7733      MisBP:0   MisRate:0.00%    MPKI:0.00
PC:116f4     Total:7733      MisBP:0   MisRate:0.00%    MPKI:0.00
PC:116f8     Total:7729      MisBP:0   MisRate:0.00%    MPKI:0.00
PC:116fa     Total:7727      MisBP:0   MisRate:0.00%    MPKI:0.00
PC:116fc     Total:7717      MisBP:0   MisRate:0.00%    MPKI:0.00
PC:116a8     Total:19208      MisBP:0   MisRate:0.00%    MPKI:0.00
PC:4a9bc     Total:31      MisBP:0   MisRate:0.00%    MPKI:0.00
PC:2f492     Total:423      MisBP:0   MisRate:0.00%    MPKI:0.00
PC:117aa     Total:10738      MisBP:0   MisRate:0.00%    MPKI:0.00
PC:2f496     Total:423      MisBP:0   MisRate:0.00%    MPKI:0.00
PC:117ae     Total:1      MisBP:0   MisRate:0.00%    MPKI:0.00
PC:11698     Total:19392      MisBP:0   MisRate:0.00%    MPKI:0.00
PC:1169c     Total:19391      MisBP:0   MisRate:0.00%    MPKI:0.00
PC:116a0     Total:19391      MisBP:0   MisRate:0.00%    MPKI:0.00
PC:116a4     Total:19208      MisBP:0   MisRate:0.00%    MPKI:0.00
PC:11668     Total:95      MisBP:0   MisRate:0.00%    MPKI:0.00
PC:116aa     Total:19208      MisBP:0   MisRate:0.00%    MPKI:0.00
PC:116ac     Total:19201      MisBP:0   MisRate:0.00%    MPKI:0.00
PC:116ae     Total:19201      MisBP:0   MisRate:0.00%    MPKI:0.00
PC:116b0     Total:18942      MisBP:0   MisRate:0.00%    MPKI:0.00
PC:116b2     Total:18942      MisBP:0   MisRate:0.00%    MPKI:0.00
PC:116b6     Total:14129      MisBP:0   MisRate:0.00%    MPKI:0.00
PC:116ba     Total:14128      MisBP:0   MisRate:0.00%    MPKI:0.00
PC:116be     Total:13366      MisBP:0   MisRate:0.00%    MPKI:0.00
PC:2c9f6     Total:3      MisBP:0   MisRate:0.00%    MPKI:0.00
PC:2c9e0     Total:75      MisBP:0   MisRate:0.00%    MPKI:0.00
PC:2c9e4     Total:75      MisBP:0   MisRate:0.00%    MPKI:0.00
PC:2c9e6     Total:75      MisBP:0   MisRate:0.00%    MPKI:0.00
PC:2c9ea     Total:3      MisBP:0   MisRate:0.00%    MPKI:0.00
PC:2c9ec     Total:3      MisBP:0   MisRate:0.00%    MPKI:0.00
PC:2c9ee     Total:3      MisBP:0   MisRate:0.00%    MPKI:0.00
PC:2c9f0     Total:3      MisBP:0   MisRate:0.00%    MPKI:0.00
PC:2c9f2     Total:3      MisBP:0   MisRate:0.00%    MPKI:0.00
PC:2c9f4     Total:3      MisBP:0   MisRate:0.00%    MPKI:0.00
PC:2c9de     Total:76      MisBP:0   MisRate:0.00%    MPKI:0.00
PC:2c9f8     Total:3      MisBP:0   MisRate:0.00%    MPKI:0.00
PC:2c9fc     Total:3      MisBP:0   MisRate:0.00%    MPKI:0.00
PC:2c9fe     Total:3      MisBP:0   MisRate:0.00%    MPKI:0.00
PC:2cf52     Total:4      MisBP:0   MisRate:0.00%    MPKI:0.00
PC:2cf60     Total:4      MisBP:0   MisRate:0.00%    MPKI:0.00
PC:2cf6e     Total:4      MisBP:0   MisRate:0.00%    MPKI:0.00
PC:2ca00     Total:2      MisBP:0   MisRate:0.00%    MPKI:0.00
PC:2ca04     Total:2      MisBP:0   MisRate:0.00%    MPKI:0.00
PC:114dc     Total:406      MisBP:0   MisRate:0.00%    MPKI:0.00
PC:2c9c2     Total:94      MisBP:0   MisRate:0.00%    MPKI:0.00
PC:2c9b6     Total:132      MisBP:0   MisRate:0.00%    MPKI:0.00
PC:2c9b8     Total:132      MisBP:0   MisRate:0.00%    MPKI:0.00
PC:2cc4a     Total:60      MisBP:0   MisRate:0.00%    MPKI:0.00
PC:2cc5e     Total:59      MisBP:0   MisRate:0.00%    MPKI:0.00
PC:2cc6c     Total:58      MisBP:0   MisRate:0.00%    MPKI:0.00
PC:2f438     Total:579      MisBP:0   MisRate:0.00%    MPKI:0.00
PC:11750     Total:16282      MisBP:0   MisRate:0.00%    MPKI:0.00
PC:2cc7a     Total:1      MisBP:0   MisRate:0.00%    MPKI:0.00
PC:2c9be     Total:94      MisBP:0   MisRate:0.00%    MPKI:0.00
PC:2ca06     Total:2      MisBP:0   MisRate:0.00%    MPKI:0.00
PC:2c9c4     Total:94      MisBP:0   MisRate:0.00%    MPKI:0.00
PC:2c9c8     Total:94      MisBP:0   MisRate:0.00%    MPKI:0.00
PC:2c9ca     Total:94      MisBP:0   MisRate:0.00%    MPKI:0.00
PC:2c9ce     Total:94      MisBP:0   MisRate:0.00%    MPKI:0.00
PC:2c9d2     Total:94      MisBP:0   MisRate:0.00%    MPKI:0.00
PC:2c9d6     Total:94      MisBP:0   MisRate:0.00%    MPKI:0.00
PC:2c9d8     Total:76      MisBP:0   MisRate:0.00%    MPKI:0.00
PC:2c9dc     Total:76      MisBP:0   MisRate:0.00%    MPKI:0.00
PC:11506     Total:315      MisBP:0   MisRate:0.00%    MPKI:0.00
PC:114f8     Total:354      MisBP:0   MisRate:0.00%    MPKI:0.00
PC:2ca22     Total:2      MisBP:0   MisRate:0.00%    MPKI:0.00
PC:114fc     Total:345      MisBP:0   MisRate:0.00%    MPKI:0.00
PC:2ca26     Total:2      MisBP:0   MisRate:0.00%    MPKI:0.00
PC:2ca28     Total:2      MisBP:0   MisRate:0.00%    MPKI:0.00
PC:11500     Total:315      MisBP:0   MisRate:0.00%    MPKI:0.00
PC:2ca2a     Total:2      MisBP:0   MisRate:0.00%    MPKI:0.00
PC:11504     Total:315      MisBP:0   MisRate:0.00%    MPKI:0.00
PC:2ca2e     Total:2      MisBP:0   MisRate:0.00%    MPKI:0.00
PC:2ca20     Total:2      MisBP:0   MisRate:0.00%    MPKI:0.00
PC:2ca30     Total:2      MisBP:0   MisRate:0.00%    MPKI:0.00
PC:2ca32     Total:2      MisBP:0   MisRate:0.00%    MPKI:0.00
PC:1150a     Total:314      MisBP:0   MisRate:0.00%    MPKI:0.00
PC:2ca34     Total:74      MisBP:0   MisRate:0.00%    MPKI:0.00
PC:2ca36     Total:74      MisBP:0   MisRate:0.00%    MPKI:0.00
PC:1150e     Total:311      MisBP:0   MisRate:0.00%    MPKI:0.00
PC:2ca38     Total:74      MisBP:0   MisRate:0.00%    MPKI:0.00
PC:11512     Total:308      MisBP:0   MisRate:0.00%    MPKI:0.00
PC:2ca3c     Total:74      MisBP:0   MisRate:0.00%    MPKI:0.00
PC:2ca14     Total:2      MisBP:0   MisRate:0.00%    MPKI:0.00
PC:114de     Total:406      MisBP:0   MisRate:0.00%    MPKI:0.00
PC:2ca08     Total:2      MisBP:0   MisRate:0.00%    MPKI:0.00
PC:2ca0a     Total:2      MisBP:0   MisRate:0.00%    MPKI:0.00
PC:114e4     Total:397      MisBP:0   MisRate:0.00%    MPKI:0.00
PC:2ca0e     Total:2      MisBP:0   MisRate:0.00%    MPKI:0.00
PC:114e6     Total:397      MisBP:0   MisRate:0.00%    MPKI:0.00
PC:2ca10     Total:2      MisBP:0   MisRate:0.00%    MPKI:0.00
PC:2ca12     Total:2      MisBP:0   MisRate:0.00%    MPKI:0.00
PC:114ea     Total:394      MisBP:0   MisRate:0.00%    MPKI:0.00
PC:2c9b4     Total:76      MisBP:0   MisRate:0.00%    MPKI:0.00
PC:114ec     Total:363      MisBP:0   MisRate:0.00%    MPKI:0.00
PC:2ca16     Total:2      MisBP:0   MisRate:0.00%    MPKI:0.00
PC:2ca18     Total:2      MisBP:0   MisRate:0.00%    MPKI:0.00
PC:114f2     Total:363      MisBP:0   MisRate:0.00%    MPKI:0.00
PC:2ca1c     Total:2      MisBP:0   MisRate:0.00%    MPKI:0.00
PC:114f4     Total:363      MisBP:0   MisRate:0.00%    MPKI:0.00
PC:2ca1e     Total:2      MisBP:0   MisRate:0.00%    MPKI:0.00
PC:114f6     Total:357      MisBP:0   MisRate:0.00%    MPKI:0.00
PC:4a9ca     Total:26      MisBP:0   MisRate:0.00%    MPKI:0.00
PC:2f47a     Total:3      MisBP:0   MisRate:0.00%    MPKI:0.00
PC:4a9b4     Total:31      MisBP:0   MisRate:0.00%    MPKI:0.00
PC:117a2     Total:3988      MisBP:0   MisRate:0.00%    MPKI:0.00
PC:2f48a     Total:423      MisBP:0   MisRate:0.00%    MPKI:0.00
PC:4a9b8     Total:31      MisBP:0   MisRate:0.00%    MPKI:0.00
PC:117a6     Total:10740      MisBP:0   MisRate:0.00%    MPKI:0.00
PC:2f48e     Total:423      MisBP:0   MisRate:0.00%    MPKI:0.00
PC:4a9c4     Total:29      MisBP:0   MisRate:0.00%    MPKI:0.00
PC:2f49a     Total:846      MisBP:0   MisRate:0.00%    MPKI:0.00
PC:11792     Total:4083      MisBP:0   MisRate:0.00%    MPKI:0.00
PC:2f4a0     Total:387      MisBP:0   MisRate:0.00%    MPKI:0.00
PC:2f4a8     Total:2      MisBP:0   MisRate:0.00%    MPKI:0.00
PC:11680     Total:16750      MisBP:0   MisRate:0.00%    MPKI:0.00
PC:11682     Total:16750      MisBP:0   MisRate:0.00%    MPKI:0.00
PC:11686     Total:7942      MisBP:0   MisRate:0.00%    MPKI:0.00
PC:11688     Total:9315      MisBP:0   MisRate:0.00%    MPKI:0.00
PC:1168c     Total:9315      MisBP:0   MisRate:0.00%    MPKI:0.00
PC:1168e     Total:9315      MisBP:0   MisRate:0.00%    MPKI:0.00
PC:11692     Total:9315      MisBP:0   MisRate:0.00%    MPKI:0.00
PC:1167c     Total:17215      MisBP:0   MisRate:0.00%    MPKI:0.00
PC:1166a     Total:96      MisBP:0   MisRate:0.00%    MPKI:0.00
PC:1166c     Total:96      MisBP:0   MisRate:0.00%    MPKI:0.00
PC:1166e     Total:96      MisBP:0   MisRate:0.00%    MPKI:0.00
PC:11670     Total:96      MisBP:0   MisRate:0.00%    MPKI:0.00
PC:11672     Total:91      MisBP:0   MisRate:0.00%    MPKI:0.00
PC:11674     Total:91      MisBP:0   MisRate:0.00%    MPKI:0.00
PC:11676     Total:89      MisBP:0   MisRate:0.00%    MPKI:0.00
PC:11678     Total:89      MisBP:0   MisRate:0.00%    MPKI:0.00
PC:1167a     Total:89      MisBP:0   MisRate:0.00%    MPKI:0.00
PC:11696     Total:9315      MisBP:0   MisRate:0.00%    MPKI:0.00
PC:1176c     Total:6647      MisBP:0   MisRate:0.00%    MPKI:0.00
PC:2f454     Total:4      MisBP:0   MisRate:0.00%    MPKI:0.00
PC:11770     Total:10390      MisBP:0   MisRate:0.00%    MPKI:0.00
PC:2f458     Total:4      MisBP:0   MisRate:0.00%    MPKI:0.00
PC:11776     Total:10384      MisBP:0   MisRate:0.00%    MPKI:0.00
PC:2f45e     Total:4      MisBP:0   MisRate:0.00%    MPKI:0.00
PC:1177a     Total:10271      MisBP:0   MisRate:0.00%    MPKI:0.00
PC:2f462     Total:4      MisBP:0   MisRate:0.00%    MPKI:0.00
PC:2c994     Total:136      MisBP:0   MisRate:0.00%    MPKI:0.00
PC:2c8aa     Total:180      MisBP:0   MisRate:0.00%    MPKI:0.00
PC:2c8ac     Total:180      MisBP:0   MisRate:0.00%    MPKI:0.00
PC:2c8b0     Total:180      MisBP:0   MisRate:0.00%    MPKI:0.00
PC:2c8b2     Total:180      MisBP:0   MisRate:0.00%    MPKI:0.00
PC:2c8b6     Total:180      MisBP:0   MisRate:0.00%    MPKI:0.00
PC:2c8b8     Total:180      MisBP:0   MisRate:0.00%    MPKI:0.00
PC:2c8bc     Total:14      MisBP:0   MisRate:0.00%    MPKI:0.00
PC:2c98c     Total:138      MisBP:0   MisRate:0.00%    MPKI:0.00
PC:2c990     Total:136      MisBP:0   MisRate:0.00%    MPKI:0.00
PC:2c8a6     Total:192      MisBP:0   MisRate:0.00%    MPKI:0.00
PC:2c99c     Total:96      MisBP:0   MisRate:0.00%    MPKI:0.00
PC:2c99e     Total:96      MisBP:0   MisRate:0.00%    MPKI:0.00
PC:2c9a2     Total:96      MisBP:0   MisRate:0.00%    MPKI:0.00
PC:2c9a4     Total:96      MisBP:0   MisRate:0.00%    MPKI:0.00
PC:2c9a6     Total:76      MisBP:0   MisRate:0.00%    MPKI:0.00
PC:2c9aa     Total:76      MisBP:0   MisRate:0.00%    MPKI:0.00
PC:2c9ae     Total:76      MisBP:0   MisRate:0.00%    MPKI:0.00
PC:2c9b2     Total:76      MisBP:0   MisRate:0.00%    MPKI:0.00
PC:2c88c     Total:217      MisBP:0   MisRate:0.00%    MPKI:0.00
PC:2c3ba     Total:1      MisBP:0   MisRate:0.00%    MPKI:0.00
PC:30e70     Total:53      MisBP:0   MisRate:0.00%    MPKI:0.00
PC:109ca     Total:94      MisBP:0   MisRate:0.00%    MPKI:0.00
PC:2c87c     Total:297      MisBP:0   MisRate:0.00%    MPKI:0.00
PC:2c87e     Total:2414      MisBP:0   MisRate:0.00%    MPKI:0.00
PC:2c882     Total:217      MisBP:0   MisRate:0.00%    MPKI:0.00
PC:2c884     Total:217      MisBP:0   MisRate:0.00%    MPKI:0.00
PC:2c886     Total:217      MisBP:0   MisRate:0.00%    MPKI:0.00
PC:2c888     Total:217      MisBP:0   MisRate:0.00%    MPKI:0.00
PC:3f668     Total:9      MisBP:0   MisRate:0.00%    MPKI:0.00
PC:2c88e     Total:217      MisBP:0   MisRate:0.00%    MPKI:0.00
PC:2c890     Total:193      MisBP:0   MisRate:0.00%    MPKI:0.00
PC:2c894     Total:193      MisBP:0   MisRate:0.00%    MPKI:0.00
PC:2c896     Total:193      MisBP:0   MisRate:0.00%    MPKI:0.00
PC:2c89a     Total:193      MisBP:0   MisRate:0.00%    MPKI:0.00
PC:2c89c     Total:193      MisBP:0   MisRate:0.00%    MPKI:0.00
PC:2c89e     Total:193      MisBP:0   MisRate:0.00%    MPKI:0.00
PC:2c8a2     Total:192      MisBP:0   MisRate:0.00%    MPKI:0.00
PC:15674     Total:157      MisBP:0   MisRate:0.00%    MPKI:0.00
PC:11dea     Total:587      MisBP:0   MisRate:0.00%    MPKI:0.00
PC:32290     Total:6      MisBP:0   MisRate:0.00%    MPKI:0.00
PC:11df6     Total:3      MisBP:0   MisRate:0.00%    MPKI:0.00
PC:3229c     Total:6      MisBP:0   MisRate:0.00%    MPKI:0.00
PC:15646     Total:158      MisBP:0   MisRate:0.00%    MPKI:0.00
PC:322a0     Total:3      MisBP:0   MisRate:0.00%    MPKI:0.00
PC:1565a     Total:158      MisBP:0   MisRate:0.00%    MPKI:0.00
PC:322b4     Total:6      MisBP:0   MisRate:0.00%    MPKI:0.00
PC:2d3a6     Total:38      MisBP:0   MisRate:0.00%    MPKI:0.00
PC:15636     Total:238      MisBP:0   MisRate:0.00%    MPKI:0.00
PC:15678     Total:157      MisBP:0   MisRate:0.00%    MPKI:0.00
PC:15688     Total:157      MisBP:0   MisRate:0.00%    MPKI:0.00
PC:1568e     Total:35      MisBP:0   MisRate:0.00%    MPKI:0.00
PC:15692     Total:171      MisBP:0   MisRate:0.00%    MPKI:0.00
PC:15696     Total:171      MisBP:0   MisRate:0.00%    MPKI:0.00
PC:156a8     Total:316      MisBP:0   MisRate:0.00%    MPKI:0.00
PC:156ac     Total:315      MisBP:0   MisRate:0.00%    MPKI:0.00
PC:156b6     Total:183      MisBP:0   MisRate:0.00%    MPKI:0.00
PC:15394     Total:301      MisBP:0   MisRate:0.00%    MPKI:0.00
PC:2d8ce     Total:8      MisBP:0   MisRate:0.00%    MPKI:0.00
PC:2c4ba     Total:2      MisBP:0   MisRate:0.00%    MPKI:0.00
PC:15142     Total:319030      MisBP:0   MisRate:0.00%    MPKI:0.00
PC:14898     Total:372      MisBP:0   MisRate:0.00%    MPKI:0.00
PC:2cb4a     Total:5      MisBP:0   MisRate:0.00%    MPKI:0.00
PC:4aa0e     Total:13      MisBP:0   MisRate:0.00%    MPKI:0.00
PC:1560e     Total:220      MisBP:0   MisRate:0.00%    MPKI:0.00
PC:15612     Total:1980      MisBP:0   MisRate:0.00%    MPKI:0.00
PC:2d8c4     Total:8      MisBP:0   MisRate:0.00%    MPKI:0.00
PC:1561c     Total:249      MisBP:0   MisRate:0.00%    MPKI:0.00
PC:1539c     Total:294      MisBP:0   MisRate:0.00%    MPKI:0.00
PC:15628     Total:241      MisBP:0   MisRate:0.00%    MPKI:0.00
PC:11ddc     Total:616      MisBP:0   MisRate:0.00%    MPKI:0.00
PC:32282     Total:6      MisBP:0   MisRate:0.00%    MPKI:0.00
PC:2d8da     Total:8      MisBP:0   MisRate:0.00%    MPKI:0.00
PC:1562c     Total:241      MisBP:0   MisRate:0.00%    MPKI:0.00
PC:32286     Total:6      MisBP:0   MisRate:0.00%    MPKI:0.00
PC:2d8de     Total:8      MisBP:0   MisRate:0.00%    MPKI:0.00
PC:3228a     Total:6      MisBP:0   MisRate:0.00%    MPKI:0.00
PC:10f44     Total:157      MisBP:0   MisRate:0.00%    MPKI:0.00
PC:156e2     Total:210      MisBP:0   MisRate:0.00%    MPKI:0.00
PC:156f4     Total:1308      MisBP:0   MisRate:0.00%    MPKI:0.00
PC:10f3a     Total:160      MisBP:0   MisRate:0.00%    MPKI:0.00
PC:2da6e     Total:1      MisBP:0   MisRate:0.00%    MPKI:0.00
PC:10f3c     Total:160      MisBP:0   MisRate:0.00%    MPKI:0.00
PC:2c92c     Total:8      MisBP:0   MisRate:0.00%    MPKI:0.00
PC:2da72     Total:1      MisBP:0   MisRate:0.00%    MPKI:0.00
PC:10f40     Total:153      MisBP:0   MisRate:0.00%    MPKI:0.00
PC:2c930     Total:8      MisBP:0   MisRate:0.00%    MPKI:0.00
PC:156bc     Total:153      MisBP:0   MisRate:0.00%    MPKI:0.00
PC:2c934     Total:8      MisBP:0   MisRate:0.00%    MPKI:0.00
PC:2da78     Total:1      MisBP:0   MisRate:0.00%    MPKI:0.00
PC:10f46     Total:157      MisBP:0   MisRate:0.00%    MPKI:0.00
PC:2c936     Total:8      MisBP:0   MisRate:0.00%    MPKI:0.00
PC:2da7c     Total:1      MisBP:0   MisRate:0.00%    MPKI:0.00
PC:2c93a     Total:8      MisBP:0   MisRate:0.00%    MPKI:0.00
PC:2c93e     Total:8      MisBP:0   MisRate:0.00%    MPKI:0.00
PC:10f54     Total:168      MisBP:0   MisRate:0.00%    MPKI:0.00
PC:2d73a     Total:10      MisBP:0   MisRate:0.00%    MPKI:0.00
PC:2d5a4     Total:78      MisBP:0   MisRate:0.00%    MPKI:0.00
PC:153a0     Total:294      MisBP:0   MisRate:0.00%    MPKI:0.00
PC:30e9e     Total:46      MisBP:0   MisRate:0.00%    MPKI:0.00
PC:109f8     Total:27      MisBP:0   MisRate:0.00%    MPKI:0.00
PC:153b4     Total:282      MisBP:0   MisRate:0.00%    MPKI:0.00
PC:153bc     Total:119      MisBP:0   MisRate:0.00%    MPKI:0.00
PC:2d66e     Total:28      MisBP:0   MisRate:0.00%    MPKI:0.00
PC:15554     Total:828      MisBP:0   MisRate:0.00%    MPKI:0.00
PC:1555e     Total:394      MisBP:0   MisRate:0.00%    MPKI:0.00
PC:1094a     Total:98      MisBP:0   MisRate:0.00%    MPKI:0.00
PC:14852     Total:356      MisBP:0   MisRate:0.00%    MPKI:0.00
PC:15562     Total:394      MisBP:0   MisRate:0.00%    MPKI:0.00
PC:1094e     Total:98      MisBP:0   MisRate:0.00%    MPKI:0.00
PC:2d5a8     Total:78      MisBP:0   MisRate:0.00%    MPKI:0.00
PC:15566     Total:394      MisBP:0   MisRate:0.00%    MPKI:0.00
PC:10952     Total:98      MisBP:0   MisRate:0.00%    MPKI:0.00
PC:2d5ac     Total:81      MisBP:0   MisRate:0.00%    MPKI:0.00
PC:15574     Total:314      MisBP:0   MisRate:0.00%    MPKI:0.00
PC:15596     Total:189      MisBP:0   MisRate:0.00%    MPKI:0.00
PC:154e8     Total:40      MisBP:0   MisRate:0.00%    MPKI:0.00
PC:151a0     Total:12542366      MisBP:0   MisRate:0.00%    MPKI:0.00
PC:2d452     Total:7      MisBP:0   MisRate:0.00%    MPKI:0.00
PC:11da4     Total:99      MisBP:0   MisRate:0.00%    MPKI:0.00
PC:154e2     Total:129      MisBP:0   MisRate:0.00%    MPKI:0.00
PC:2d794     Total:1      MisBP:0   MisRate:0.00%    MPKI:0.00
PC:11da6     Total:99      MisBP:0   MisRate:0.00%    MPKI:0.00
PC:2d796     Total:1      MisBP:0   MisRate:0.00%    MPKI:0.00
PC:2d458     Total:7      MisBP:0   MisRate:0.00%    MPKI:0.00
PC:10a3a     Total:1      MisBP:0   MisRate:0.00%    MPKI:0.00
PC:114fa     Total:351      MisBP:0   MisRate:0.00%    MPKI:0.00
PC:2d79a     Total:1      MisBP:0   MisRate:0.00%    MPKI:0.00
PC:2d55c     Total:259      MisBP:0   MisRate:0.00%    MPKI:0.00
PC:147f0     Total:423      MisBP:0   MisRate:0.00%    MPKI:0.00
PC:11578     Total:73      MisBP:0   MisRate:0.00%    MPKI:0.00
PC:151a8     Total:5426916      MisBP:0   MisRate:0.00%    MPKI:0.00
PC:2d45a     Total:7      MisBP:0   MisRate:0.00%    MPKI:0.00
PC:11dac     Total:99      MisBP:0   MisRate:0.00%    MPKI:0.00
PC:2d79c     Total:1      MisBP:0   MisRate:0.00%    MPKI:0.00
PC:151aa     Total:5425547      MisBP:0   MisRate:0.00%    MPKI:0.00
PC:2d44a     Total:7      MisBP:0   MisRate:0.00%    MPKI:0.00
PC:2d4ba     Total:8      MisBP:0   MisRate:0.00%    MPKI:0.00
PC:2d668     Total:37      MisBP:0   MisRate:0.00%    MPKI:0.00
PC:153b6     Total:281      MisBP:0   MisRate:0.00%    MPKI:0.00
PC:35e30     Total:37      MisBP:0   MisRate:0.00%    MPKI:0.00
PC:10a0e     Total:25      MisBP:0   MisRate:0.00%    MPKI:0.00
PC:2d77a     Total:8      MisBP:0   MisRate:0.00%    MPKI:0.00
PC:11d8a     Total:109      MisBP:0   MisRate:0.00%    MPKI:0.00
PC:154c8     Total:58      MisBP:0   MisRate:0.00%    MPKI:0.00
PC:15198     Total:12633757      MisBP:0   MisRate:0.00%    MPKI:0.00
PC:2d45c     Total:7      MisBP:0   MisRate:0.00%    MPKI:0.00
PC:2d65a     Total:37      MisBP:0   MisRate:0.00%    MPKI:0.00
PC:148ee     Total:371      MisBP:0   MisRate:0.00%    MPKI:0.00
PC:11d9c     Total:99      MisBP:0   MisRate:0.00%    MPKI:0.00
PC:154da     Total:132      MisBP:0   MisRate:0.00%    MPKI:0.00
PC:1519c     Total:12547653      MisBP:0   MisRate:0.00%    MPKI:0.00
PC:2d44e     Total:7      MisBP:0   MisRate:0.00%    MPKI:0.00
PC:11da0     Total:99      MisBP:0   MisRate:0.00%    MPKI:0.00
PC:154de     Total:129      MisBP:0   MisRate:0.00%    MPKI:0.00
PC:2efaa     Total:86      MisBP:0   MisRate:0.00%    MPKI:0.00
PC:108fc     Total:123      MisBP:0   MisRate:0.00%    MPKI:0.00
PC:26eaa     Total:11      MisBP:0   MisRate:0.00%    MPKI:0.00
PC:2d57a     Total:229      MisBP:0   MisRate:0.00%    MPKI:0.00
PC:1480e     Total:382      MisBP:0   MisRate:0.00%    MPKI:0.00
PC:2ef94     Total:86      MisBP:0   MisRate:0.00%    MPKI:0.00
PC:11596     Total:12337      MisBP:0   MisRate:0.00%    MPKI:0.00
PC:2cac0     Total:30      MisBP:0   MisRate:0.00%    MPKI:0.00
PC:2d590     Total:87      MisBP:0   MisRate:0.00%    MPKI:0.00
PC:14824     Total:375      MisBP:0   MisRate:0.00%    MPKI:0.00
PC:2ef90     Total:86      MisBP:0   MisRate:0.00%    MPKI:0.00
PC:10a04     Total:25      MisBP:0   MisRate:0.00%    MPKI:0.00
PC:35e26     Total:38      MisBP:0   MisRate:0.00%    MPKI:0.00
PC:150e8     Total:13896000      MisBP:0   MisRate:0.00%    MPKI:0.00
PC:2d5aa     Total:81      MisBP:0   MisRate:0.00%    MPKI:0.00
PC:1483e     Total:356      MisBP:0   MisRate:0.00%    MPKI:0.00
PC:2caf0     Total:30      MisBP:0   MisRate:0.00%    MPKI:0.00
PC:150ee     Total:13891159      MisBP:0   MisRate:0.00%    MPKI:0.00
PC:14846     Total:356      MisBP:0   MisRate:0.00%    MPKI:0.00
PC:2d7a4     Total:1      MisBP:0   MisRate:0.00%    MPKI:0.00
PC:11dae     Total:99      MisBP:0   MisRate:0.00%    MPKI:0.00
PC:154ec     Total:40      MisBP:0   MisRate:0.00%    MPKI:0.00
PC:2d79e     Total:1      MisBP:0   MisRate:0.00%    MPKI:0.00
PC:11db2     Total:99      MisBP:0   MisRate:0.00%    MPKI:0.00
PC:154f0     Total:40      MisBP:0   MisRate:0.00%    MPKI:0.00
PC:2d7a2     Total:1      MisBP:0   MisRate:0.00%    MPKI:0.00
PC:151b0     Total:701565      MisBP:0   MisRate:0.00%    MPKI:0.00
PC:2d462     Total:7      MisBP:0   MisRate:0.00%    MPKI:0.00
PC:11db4     Total:99      MisBP:0   MisRate:0.00%    MPKI:0.00
PC:2d73e     Total:10      MisBP:0   MisRate:0.00%    MPKI:0.00
PC:151b4     Total:701219      MisBP:0   MisRate:0.00%    MPKI:0.00
PC:11db8     Total:99      MisBP:0   MisRate:0.00%    MPKI:0.00
PC:154f6     Total:36      MisBP:0   MisRate:0.00%    MPKI:0.00
PC:151b6     Total:700960      MisBP:0   MisRate:0.00%    MPKI:0.00
PC:2d468     Total:7      MisBP:0   MisRate:0.00%    MPKI:0.00
PC:11dba     Total:98      MisBP:0   MisRate:0.00%    MPKI:0.00
PC:2d576     Total:230      MisBP:0   MisRate:0.00%    MPKI:0.00
PC:1480a     Total:382      MisBP:0   MisRate:0.00%    MPKI:0.00
PC:2f450     Total:4      MisBP:0   MisRate:0.00%    MPKI:0.00
PC:115b0     Total:11665      MisBP:0   MisRate:0.00%    MPKI:0.00
PC:2cadc     Total:30      MisBP:0   MisRate:0.00%    MPKI:0.00
PC:115b2     Total:11665      MisBP:0   MisRate:0.00%    MPKI:0.00
PC:2cae4     Total:30      MisBP:0   MisRate:0.00%    MPKI:0.00
PC:115ba     Total:17633      MisBP:0   MisRate:0.00%    MPKI:0.00
PC:115bc     Total:35140      MisBP:0   MisRate:0.00%    MPKI:0.00
PC:2f480     Total:4      MisBP:0   MisRate:0.00%    MPKI:0.00
PC:2cae8     Total:30      MisBP:0   MisRate:0.00%    MPKI:0.00
PC:115be     Total:35130      MisBP:0   MisRate:0.00%    MPKI:0.00
PC:115ae     Total:11671      MisBP:0   MisRate:0.00%    MPKI:0.00
PC:11768     Total:6647      MisBP:0   MisRate:0.00%    MPKI:0.00
PC:1176e     Total:6647      MisBP:0   MisRate:0.00%    MPKI:0.00
PC:2f45a     Total:4      MisBP:0   MisRate:0.00%    MPKI:0.00
PC:11772     Total:10388      MisBP:0   MisRate:0.00%    MPKI:0.00
PC:11774     Total:10385      MisBP:0   MisRate:0.00%    MPKI:0.00
PC:2f460     Total:4      MisBP:0   MisRate:0.00%    MPKI:0.00
PC:11778     Total:10383      MisBP:0   MisRate:0.00%    MPKI:0.00
PC:2f466     Total:4      MisBP:0   MisRate:0.00%    MPKI:0.00
PC:1177e     Total:9786      MisBP:0   MisRate:0.00%    MPKI:0.00
PC:2f464     Total:4      MisBP:0   MisRate:0.00%    MPKI:0.00
PC:114f0     Total:363      MisBP:0   MisRate:0.00%    MPKI:0.00
PC:11d9a     Total:99      MisBP:0   MisRate:0.00%    MPKI:0.00
PC:2d78a     Total:3      MisBP:0   MisRate:0.00%    MPKI:0.00
PC:11db0     Total:99      MisBP:0   MisRate:0.00%    MPKI:0.00
PC:2d7a0     Total:1      MisBP:0   MisRate:0.00%    MPKI:0.00
PC:11db6     Total:99      MisBP:0   MisRate:0.00%    MPKI:0.00
PC:154f4     Total:38      MisBP:0   MisRate:0.00%    MPKI:0.00
PC:2caca     Total:30      MisBP:0   MisRate:0.00%    MPKI:0.00
PC:115a0     Total:5478      MisBP:0   MisRate:0.00%    MPKI:0.00
PC:2f46a     Total:4      MisBP:0   MisRate:0.00%    MPKI:0.00
PC:115a2     Total:5478      MisBP:0   MisRate:0.00%    MPKI:0.00
PC:115a6     Total:5478      MisBP:0   MisRate:0.00%    MPKI:0.00
PC:2cad2     Total:30      MisBP:0   MisRate:0.00%    MPKI:0.00
PC:115a8     Total:12726      MisBP:0   MisRate:0.00%    MPKI:0.00
PC:2cad4     Total:30      MisBP:0   MisRate:0.00%    MPKI:0.00
PC:115aa     Total:21194      MisBP:0   MisRate:0.00%    MPKI:0.00
PC:2f470     Total:3      MisBP:0   MisRate:0.00%    MPKI:0.00
PC:2cad8     Total:30      MisBP:0   MisRate:0.00%    MPKI:0.00
PC:1175e     Total:16163      MisBP:0   MisRate:0.00%    MPKI:0.00
PC:2f43a     Total:579      MisBP:0   MisRate:0.00%    MPKI:0.00
PC:11752     Total:16192      MisBP:0   MisRate:0.00%    MPKI:0.00
PC:2f43c     Total:579      MisBP:0   MisRate:0.00%    MPKI:0.00
PC:11754     Total:16191      MisBP:0   MisRate:0.00%    MPKI:0.00
PC:2f43e     Total:548      MisBP:0   MisRate:0.00%    MPKI:0.00
PC:11756     Total:16181      MisBP:0   MisRate:0.00%    MPKI:0.00
PC:1175a     Total:16170      MisBP:0   MisRate:0.00%    MPKI:0.00
PC:2f444     Total:485      MisBP:0   MisRate:0.00%    MPKI:0.00
PC:1175c     Total:16165      MisBP:0   MisRate:0.00%    MPKI:0.00
PC:117a4     Total:3988      MisBP:0   MisRate:0.00%    MPKI:0.00
PC:11766     Total:7580      MisBP:0   MisRate:0.00%    MPKI:0.00
PC:1179c     Total:4082      MisBP:0   MisRate:0.00%    MPKI:0.00
PC:2f484     Total:2      MisBP:0   MisRate:0.00%    MPKI:0.00
PC:117a0     Total:4082      MisBP:0   MisRate:0.00%    MPKI:0.00
PC:2f488     Total:426      MisBP:0   MisRate:0.00%    MPKI:0.00
PC:2caf6     Total:30      MisBP:0   MisRate:0.00%    MPKI:0.00
PC:115cc     Total:33764      MisBP:0   MisRate:0.00%    MPKI:0.00
PC:115ce     Total:33758      MisBP:0   MisRate:0.00%    MPKI:0.00
PC:115d2     Total:33753      MisBP:0   MisRate:0.00%    MPKI:0.00
PC:1178e     Total:4083      MisBP:0   MisRate:0.00%    MPKI:0.00
PC:11782     Total:9786      MisBP:0   MisRate:0.00%    MPKI:0.00
PC:2f46c     Total:4      MisBP:0   MisRate:0.00%    MPKI:0.00
PC:11784     Total:9785      MisBP:0   MisRate:0.00%    MPKI:0.00
PC:2f46e     Total:3      MisBP:0   MisRate:0.00%    MPKI:0.00
PC:11786     Total:9785      MisBP:0   MisRate:0.00%    MPKI:0.00
PC:1178a     Total:9785      MisBP:0   MisRate:0.00%    MPKI:0.00
PC:2f474     Total:3      MisBP:0   MisRate:0.00%    MPKI:0.00
PC:1178c     Total:9782      MisBP:0   MisRate:0.00%    MPKI:0.00
PC:2f476     Total:3      MisBP:0   MisRate:0.00%    MPKI:0.00
PC:11d96     Total:99      MisBP:0   MisRate:0.00%    MPKI:0.00
PC:11790     Total:4083      MisBP:0   MisRate:0.00%    MPKI:0.00
PC:4a9a8     Total:348      MisBP:0   MisRate:0.00%    MPKI:0.00
PC:2f47e     Total:3      MisBP:0   MisRate:0.00%    MPKI:0.00
PC:11796     Total:4083      MisBP:0   MisRate:0.00%    MPKI:0.00
PC:4a9ac     Total:31      MisBP:0   MisRate:0.00%    MPKI:0.00
PC:1179a     Total:4083      MisBP:0   MisRate:0.00%    MPKI:0.00
PC:4a9b0     Total:93      MisBP:0   MisRate:0.00%    MPKI:0.00
PC:1179e     Total:4082      MisBP:0   MisRate:0.00%    MPKI:0.00
PC:30e9a     Total:46      MisBP:0   MisRate:0.00%    MPKI:0.00
PC:15496     Total:55      MisBP:0   MisRate:0.00%    MPKI:0.00
PC:109e0     Total:27      MisBP:0   MisRate:0.00%    MPKI:0.00
PC:30e86     Total:44      MisBP:0   MisRate:0.00%    MPKI:0.00
PC:2d74a     Total:13      MisBP:0   MisRate:0.00%    MPKI:0.00
PC:15498     Total:55      MisBP:0   MisRate:0.00%    MPKI:0.00
PC:15168     Total:12462341      MisBP:0   MisRate:0.00%    MPKI:0.00
PC:11d6c     Total:149      MisBP:0   MisRate:0.00%    MPKI:0.00
PC:154aa     Total:123      MisBP:0   MisRate:0.00%    MPKI:0.00
PC:109f4     Total:27      MisBP:0   MisRate:0.00%    MPKI:0.00
PC:2d748     Total:13      MisBP:0   MisRate:0.00%    MPKI:0.00
PC:2d74e     Total:13      MisBP:0   MisRate:0.00%    MPKI:0.00
PC:1549c     Total:53      MisBP:0   MisRate:0.00%    MPKI:0.00
PC:1516c     Total:6192765      MisBP:0   MisRate:0.00%    MPKI:0.00
PC:14fb0     Total:240      MisBP:0   MisRate:0.00%    MPKI:0.00
PC:14fb2     Total:239      MisBP:0   MisRate:0.00%    MPKI:0.00
PC:14fb4     Total:236      MisBP:0   MisRate:0.00%    MPKI:0.00
PC:14fb6     Total:236      MisBP:0   MisRate:0.00%    MPKI:0.00
PC:14fb8     Total:236      MisBP:0   MisRate:0.00%    MPKI:0.00
PC:2ef9a     Total:86      MisBP:0   MisRate:0.00%    MPKI:0.00
PC:11d64     Total:136      MisBP:0   MisRate:0.00%    MPKI:0.00
PC:2d740     Total:9      MisBP:0   MisRate:0.00%    MPKI:0.00
PC:1548e     Total:55      MisBP:0   MisRate:0.00%    MPKI:0.00
PC:109d8     Total:27      MisBP:0   MisRate:0.00%    MPKI:0.00
PC:30e7e     Total:47      MisBP:0   MisRate:0.00%    MPKI:0.00
PC:1515e     Total:12465422      MisBP:0   MisRate:0.00%    MPKI:0.00
PC:11d62     Total:137      MisBP:0   MisRate:0.00%    MPKI:0.00
PC:2d752     Total:13      MisBP:0   MisRate:0.00%    MPKI:0.00
PC:154a0     Total:124      MisBP:0   MisRate:0.00%    MPKI:0.00
PC:15160     Total:12465435      MisBP:0   MisRate:0.00%    MPKI:0.00
PC:14fba     Total:236      MisBP:0   MisRate:0.00%    MPKI:0.00
PC:154a2     Total:124      MisBP:0   MisRate:0.00%    MPKI:0.00
PC:30e92     Total:44      MisBP:0   MisRate:0.00%    MPKI:0.00
PC:2d744     Total:9      MisBP:0   MisRate:0.00%    MPKI:0.00
PC:15492     Total:55      MisBP:0   MisRate:0.00%    MPKI:0.00
PC:109dc     Total:27      MisBP:0   MisRate:0.00%    MPKI:0.00
PC:30e82     Total:44      MisBP:0   MisRate:0.00%    MPKI:0.00
PC:2d746     Total:13      MisBP:0   MisRate:0.00%    MPKI:0.00
PC:15164     Total:12463105      MisBP:0   MisRate:0.00%    MPKI:0.00
PC:11d8e     Total:109      MisBP:0   MisRate:0.00%    MPKI:0.00
PC:14fd0     Total:212      MisBP:0   MisRate:0.00%    MPKI:0.00
PC:14fd2     Total:424      MisBP:0   MisRate:0.00%    MPKI:0.00
PC:14fd6     Total:212      MisBP:0   MisRate:0.00%    MPKI:0.00
PC:148da     Total:371      MisBP:0   MisRate:0.00%    MPKI:0.00
PC:11d88     Total:109      MisBP:0   MisRate:0.00%    MPKI:0.00
PC:15186     Total:1649302      MisBP:0   MisRate:0.00%    MPKI:0.00
PC:114e2     Total:404      MisBP:0   MisRate:0.00%    MPKI:0.00
PC:148de     Total:371      MisBP:0   MisRate:0.00%    MPKI:0.00
PC:1518a     Total:1649283      MisBP:0   MisRate:0.00%    MPKI:0.00
PC:14fce     Total:213      MisBP:0   MisRate:0.00%    MPKI:0.00
PC:154cc     Total:58      MisBP:0   MisRate:0.00%    MPKI:0.00
PC:11d92     Total:99      MisBP:0   MisRate:0.00%    MPKI:0.00
PC:154d0     Total:58      MisBP:0   MisRate:0.00%    MPKI:0.00
PC:2d782     Total:3      MisBP:0   MisRate:0.00%    MPKI:0.00
PC:148e6     Total:371      MisBP:0   MisRate:0.00%    MPKI:0.00
PC:11d94     Total:99      MisBP:0   MisRate:0.00%    MPKI:0.00
PC:154d2     Total:58      MisBP:0   MisRate:0.00%    MPKI:0.00
PC:2d784     Total:3      MisBP:0   MisRate:0.00%    MPKI:0.00
PC:14fc6     Total:213      MisBP:0   MisRate:0.00%    MPKI:0.00
PC:14832     Total:371      MisBP:0   MisRate:0.00%    MPKI:0.00
PC:2d59e     Total:78      MisBP:0   MisRate:0.00%    MPKI:0.00
PC:14fbc     Total:236      MisBP:0   MisRate:0.00%    MPKI:0.00
PC:2ef9e     Total:86      MisBP:0   MisRate:0.00%    MPKI:0.00
PC:14fbe     Total:456      MisBP:0   MisRate:0.00%    MPKI:0.00
PC:14fc0     Total:213      MisBP:0   MisRate:0.00%    MPKI:0.00
PC:14fc2     Total:213      MisBP:0   MisRate:0.00%    MPKI:0.00
PC:2efa4     Total:86      MisBP:0   MisRate:0.00%    MPKI:0.00
PC:14fc4     Total:213      MisBP:0   MisRate:0.00%    MPKI:0.00
PC:11516     Total:241      MisBP:0   MisRate:0.00%    MPKI:0.00
PC:2efa8     Total:86      MisBP:0   MisRate:0.00%    MPKI:0.00
PC:30ea8     Total:46      MisBP:0   MisRate:0.00%    MPKI:0.00
PC:35e24     Total:38      MisBP:0   MisRate:0.00%    MPKI:0.00
PC:14fc8     Total:213      MisBP:0   MisRate:0.00%    MPKI:0.00
PC:14fca     Total:213      MisBP:0   MisRate:0.00%    MPKI:0.00
PC:14fcc     Total:213      MisBP:0   MisRate:0.00%    MPKI:0.00
PC:14844     Total:356      MisBP:0   MisRate:0.00%    MPKI:0.00
PC:2d5b0     Total:81      MisBP:0   MisRate:0.00%    MPKI:0.00
PC:2d68c     Total:19      MisBP:0   MisRate:0.00%    MPKI:0.00
PC:2d45e     Total:7      MisBP:0   MisRate:0.00%    MPKI:0.00
PC:2d464     Total:7      MisBP:0   MisRate:0.00%    MPKI:0.00
PC:2d472     Total:7      MisBP:0   MisRate:0.00%    MPKI:0.00
PC:2d482     Total:2      MisBP:0   MisRate:0.00%    MPKI:0.00
PC:2d486     Total:2      MisBP:0   MisRate:0.00%    MPKI:0.00
PC:30ea4     Total:92      MisBP:0   MisRate:0.00%    MPKI:0.00
PC:35e20     Total:38      MisBP:0   MisRate:0.00%    MPKI:0.00
PC:109fe     Total:26      MisBP:0   MisRate:0.00%    MPKI:0.00
PC:26e70     Total:43      MisBP:0   MisRate:0.00%    MPKI:0.00
PC:2d454     Total:7      MisBP:0   MisRate:0.00%    MPKI:0.00
PC:2d694     Total:17      MisBP:0   MisRate:0.00%    MPKI:0.00
PC:2d698     Total:17      MisBP:0   MisRate:0.00%    MPKI:0.00
PC:2d69c     Total:17      MisBP:0   MisRate:0.00%    MPKI:0.00
PC:2d6a0     Total:11      MisBP:0   MisRate:0.00%    MPKI:0.00
PC:2d6a6     Total:11      MisBP:0   MisRate:0.00%    MPKI:0.00
PC:2d6aa     Total:11      MisBP:0   MisRate:0.00%    MPKI:0.00
PC:2bb4c     Total:31      MisBP:0   MisRate:0.00%    MPKI:0.00
PC:1559e     Total:97      MisBP:0   MisRate:0.00%    MPKI:0.00
PC:2bb50     Total:31      MisBP:0   MisRate:0.00%    MPKI:0.00
PC:4aa34     Total:1      MisBP:0   MisRate:0.00%    MPKI:0.00
PC:11728     Total:4719      MisBP:0   MisRate:0.00%    MPKI:0.00
PC:2cc54     Total:60      MisBP:0   MisRate:0.00%    MPKI:0.00
PC:1172a     Total:4717      MisBP:0   MisRate:0.00%    MPKI:0.00
PC:1172c     Total:4715      MisBP:0   MisRate:0.00%    MPKI:0.00
PC:2cc58     Total:59      MisBP:0   MisRate:0.00%    MPKI:0.00
PC:1172e     Total:4715      MisBP:0   MisRate:0.00%    MPKI:0.00
PC:31cc4     Total:8      MisBP:0   MisRate:0.00%    MPKI:0.00
PC:4aa30     Total:2      MisBP:0   MisRate:0.00%    MPKI:0.00
PC:22e50     Total:60      MisBP:0   MisRate:0.00%    MPKI:0.00
PC:2bb54     Total:31      MisBP:0   MisRate:0.00%    MPKI:0.00
PC:31cc8     Total:8      MisBP:0   MisRate:0.00%    MPKI:0.00
PC:22e54     Total:20      MisBP:0   MisRate:0.00%    MPKI:0.00
PC:31cfc     Total:5      MisBP:0   MisRate:0.00%    MPKI:0.00
PC:2cd80     Total:24      MisBP:0   MisRate:0.00%    MPKI:0.00
PC:2cd82     Total:24      MisBP:0   MisRate:0.00%    MPKI:0.00
PC:2cd86     Total:45      MisBP:0   MisRate:0.00%    MPKI:0.00
PC:2d444     Total:7      MisBP:0   MisRate:0.00%    MPKI:0.00
PC:2d44c     Total:7      MisBP:0   MisRate:0.00%    MPKI:0.00
PC:2cb18     Total:24      MisBP:0   MisRate:0.00%    MPKI:0.00
PC:115de     Total:33032      MisBP:0   MisRate:0.00%    MPKI:0.00
PC:2cb08     Total:28      MisBP:0   MisRate:0.00%    MPKI:0.00
PC:2f4a2     Total:387      MisBP:0   MisRate:0.00%    MPKI:0.00
PC:4a9cc     Total:26      MisBP:0   MisRate:0.00%    MPKI:0.00
PC:115ea     Total:33003      MisBP:0   MisRate:0.00%    MPKI:0.00
PC:2cb14     Total:28      MisBP:0   MisRate:0.00%    MPKI:0.00
PC:2f4ae     Total:2      MisBP:0   MisRate:0.00%    MPKI:0.00
PC:4a9d8     Total:26      MisBP:0   MisRate:0.00%    MPKI:0.00
PC:115ee     Total:23252      MisBP:0   MisRate:0.00%    MPKI:0.00
PC:4a9c6     Total:27      MisBP:0   MisRate:0.00%    MPKI:0.00
PC:115f2     Total:23061      MisBP:0   MisRate:0.00%    MPKI:0.00
PC:2cb1c     Total:24      MisBP:0   MisRate:0.00%    MPKI:0.00
PC:4a9e0     Total:26      MisBP:0   MisRate:0.00%    MPKI:0.00
PC:2cb24     Total:24      MisBP:0   MisRate:0.00%    MPKI:0.00
PC:11604     Total:22124      MisBP:0   MisRate:0.00%    MPKI:0.00
PC:2cb2e     Total:16      MisBP:0   MisRate:0.00%    MPKI:0.00
PC:4a9f2     Total:25      MisBP:0   MisRate:0.00%    MPKI:0.00
PC:11608     Total:22110      MisBP:0   MisRate:0.00%    MPKI:0.00
PC:2cb32     Total:16      MisBP:0   MisRate:0.00%    MPKI:0.00
PC:2bb62     Total:31      MisBP:0   MisRate:0.00%    MPKI:0.00
PC:155a6     Total:111      MisBP:0   MisRate:0.00%    MPKI:0.00
PC:2bb56     Total:31      MisBP:0   MisRate:0.00%    MPKI:0.00
PC:155a8     Total:108      MisBP:0   MisRate:0.00%    MPKI:0.00
PC:2bb5a     Total:31      MisBP:0   MisRate:0.00%    MPKI:0.00
PC:155ac     Total:108      MisBP:0   MisRate:0.00%    MPKI:0.00
PC:2bb5e     Total:31      MisBP:0   MisRate:0.00%    MPKI:0.00
PC:155b0     Total:108      MisBP:0   MisRate:0.00%    MPKI:0.00
PC:2bb60     Total:31      MisBP:0   MisRate:0.00%    MPKI:0.00
PC:155b2     Total:108      MisBP:0   MisRate:0.00%    MPKI:0.00
PC:2cc52     Total:60      MisBP:0   MisRate:0.00%    MPKI:0.00
PC:155b4     Total:718      MisBP:0   MisRate:0.00%    MPKI:0.00
PC:115d4     Total:33750      MisBP:0   MisRate:0.00%    MPKI:0.00
PC:2cafe     Total:28      MisBP:0   MisRate:0.00%    MPKI:0.00
PC:117b0     Total:10      MisBP:0   MisRate:0.00%    MPKI:0.00
PC:4a9c2     Total:29      MisBP:0   MisRate:0.00%    MPKI:0.00
PC:115d8     Total:33739      MisBP:0   MisRate:0.00%    MPKI:0.00
PC:2cb02     Total:28      MisBP:0   MisRate:0.00%    MPKI:0.00
PC:117b4     Total:1      MisBP:0   MisRate:0.00%    MPKI:0.00
PC:2c8d4     Total:11      MisBP:0   MisRate:0.00%    MPKI:0.00
PC:2e0e2     Total:1      MisBP:0   MisRate:0.00%    MPKI:0.00
PC:2e0e4     Total:1      MisBP:0   MisRate:0.00%    MPKI:0.00
PC:2e0e8     Total:1      MisBP:0   MisRate:0.00%    MPKI:0.00
PC:2c8c0     Total:11      MisBP:0   MisRate:0.00%    MPKI:0.00
PC:2c8c4     Total:11      MisBP:0   MisRate:0.00%    MPKI:0.00
PC:2c8c6     Total:11      MisBP:0   MisRate:0.00%    MPKI:0.00
PC:2c8ca     Total:11      MisBP:0   MisRate:0.00%    MPKI:0.00
PC:2c8ce     Total:11      MisBP:0   MisRate:0.00%    MPKI:0.00
PC:2c8d2     Total:11      MisBP:0   MisRate:0.00%    MPKI:0.00
PC:2e0de     Total:1      MisBP:0   MisRate:0.00%    MPKI:0.00
PC:2c8d8     Total:11      MisBP:0   MisRate:0.00%    MPKI:0.00
PC:2cc5a     Total:59      MisBP:0   MisRate:0.00%    MPKI:0.00
PC:11730     Total:11279      MisBP:0   MisRate:0.00%    MPKI:0.00
PC:2cc5c     Total:59      MisBP:0   MisRate:0.00%    MPKI:0.00
PC:11732     Total:11278      MisBP:0   MisRate:0.00%    MPKI:0.00
PC:2cc60     Total:59      MisBP:0   MisRate:0.00%    MPKI:0.00
PC:11736     Total:11277      MisBP:0   MisRate:0.00%    MPKI:0.00
PC:11738     Total:11275      MisBP:0   MisRate:0.00%    MPKI:0.00
PC:2cc64     Total:59      MisBP:0   MisRate:0.00%    MPKI:0.00
PC:2e0d0     Total:1      MisBP:0   MisRate:0.00%    MPKI:0.00
PC:2e0c4     Total:34      MisBP:0   MisRate:0.00%    MPKI:0.00
PC:1535a     Total:36735      MisBP:0   MisRate:0.00%    MPKI:0.00
PC:2e0c6     Total:34      MisBP:0   MisRate:0.00%    MPKI:0.00
PC:1535e     Total:36731      MisBP:0   MisRate:0.00%    MPKI:0.00
PC:2e0ca     Total:34      MisBP:0   MisRate:0.00%    MPKI:0.00
PC:15360     Total:36724      MisBP:0   MisRate:0.00%    MPKI:0.00
PC:2e0cc     Total:34      MisBP:0   MisRate:0.00%    MPKI:0.00
PC:2e0ce     Total:1      MisBP:0   MisRate:0.00%    MPKI:0.00
PC:15364     Total:34344      MisBP:0   MisRate:0.00%    MPKI:0.00
PC:2cc66     Total:59      MisBP:0   MisRate:0.00%    MPKI:0.00
PC:15366     Total:34343      MisBP:0   MisRate:0.00%    MPKI:0.00
PC:2e0d2     Total:1      MisBP:0   MisRate:0.00%    MPKI:0.00
PC:15368     Total:34339      MisBP:0   MisRate:0.00%    MPKI:0.00
PC:2e0d4     Total:1      MisBP:0   MisRate:0.00%    MPKI:0.00
PC:1536c     Total:988      MisBP:0   MisRate:0.00%    MPKI:0.00
PC:2e0d8     Total:1      MisBP:0   MisRate:0.00%    MPKI:0.00
PC:2e0da     Total:1      MisBP:0   MisRate:0.00%    MPKI:0.00
PC:2e0dc     Total:1      MisBP:0   MisRate:0.00%    MPKI:0.00
PC:11718     Total:5252      MisBP:0   MisRate:0.00%    MPKI:0.00
PC:11706     Total:7164      MisBP:0   MisRate:0.00%    MPKI:0.00
PC:11708     Total:7159      MisBP:0   MisRate:0.00%    MPKI:0.00
PC:1170a     Total:7156      MisBP:0   MisRate:0.00%    MPKI:0.00
PC:1170c     Total:7154      MisBP:0   MisRate:0.00%    MPKI:0.00
PC:11712     Total:5332      MisBP:0   MisRate:0.00%    MPKI:0.00
PC:2cc3e     Total:60      MisBP:0   MisRate:0.00%    MPKI:0.00
PC:11714     Total:5262      MisBP:0   MisRate:0.00%    MPKI:0.00
PC:2cc40     Total:60      MisBP:0   MisRate:0.00%    MPKI:0.00
PC:11716     Total:5252      MisBP:0   MisRate:0.00%    MPKI:0.00
PC:11700     Total:7382      MisBP:0   MisRate:0.00%    MPKI:0.00
PC:2cc44     Total:60      MisBP:0   MisRate:0.00%    MPKI:0.00
PC:2cc48     Total:60      MisBP:0   MisRate:0.00%    MPKI:0.00
PC:1171e     Total:4794      MisBP:0   MisRate:0.00%    MPKI:0.00
PC:2cc4c     Total:60      MisBP:0   MisRate:0.00%    MPKI:0.00
PC:11722     Total:4792      MisBP:0   MisRate:0.00%    MPKI:0.00
PC:11724     Total:4792      MisBP:0   MisRate:0.00%    MPKI:0.00
PC:2cc50     Total:60      MisBP:0   MisRate:0.00%    MPKI:0.00
PC:11726     Total:4789      MisBP:0   MisRate:0.00%    MPKI:0.00
PC:2cc72     Total:58      MisBP:0   MisRate:0.00%    MPKI:0.00
PC:1173c     Total:7278      MisBP:0   MisRate:0.00%    MPKI:0.00
PC:1173e     Total:7277      MisBP:0   MisRate:0.00%    MPKI:0.00
PC:2cc6a     Total:59      MisBP:0   MisRate:0.00%    MPKI:0.00
PC:11740     Total:7016      MisBP:0   MisRate:0.00%    MPKI:0.00
PC:2f42c     Total:579      MisBP:0   MisRate:0.00%    MPKI:0.00
PC:11744     Total:7004      MisBP:0   MisRate:0.00%    MPKI:0.00
PC:2cc70     Total:58      MisBP:0   MisRate:0.00%    MPKI:0.00
PC:11746     Total:7001      MisBP:0   MisRate:0.00%    MPKI:0.00
PC:2f430     Total:1158      MisBP:0   MisRate:0.00%    MPKI:0.00
PC:4a9f6     Total:25      MisBP:0   MisRate:0.00%    MPKI:0.00
PC:11748     Total:7001      MisBP:0   MisRate:0.00%    MPKI:0.00
PC:2f432     Total:579      MisBP:0   MisRate:0.00%    MPKI:0.00
PC:2cc74     Total:58      MisBP:0   MisRate:0.00%    MPKI:0.00
PC:1174a     Total:7000      MisBP:0   MisRate:0.00%    MPKI:0.00
PC:2cc76     Total:1      MisBP:0   MisRate:0.00%    MPKI:0.00
PC:1174c     Total:7000      MisBP:0   MisRate:0.00%    MPKI:0.00
PC:2f436     Total:579      MisBP:0   MisRate:0.00%    MPKI:0.00
PC:1174e     Total:6997      MisBP:0   MisRate:0.00%    MPKI:0.00
PC:2c932     Total:8      MisBP:0   MisRate:0.00%    MPKI:0.00
PC:2c914     Total:8      MisBP:0   MisRate:0.00%    MPKI:0.00
PC:2c918     Total:8      MisBP:0   MisRate:0.00%    MPKI:0.00
PC:2c91a     Total:8      MisBP:0   MisRate:0.00%    MPKI:0.00
PC:2c91c     Total:8      MisBP:0   MisRate:0.00%    MPKI:0.00
PC:2c91e     Total:8      MisBP:0   MisRate:0.00%    MPKI:0.00
PC:2c922     Total:8      MisBP:0   MisRate:0.00%    MPKI:0.00
PC:2c926     Total:8      MisBP:0   MisRate:0.00%    MPKI:0.00
PC:2c928     Total:8      MisBP:0   MisRate:0.00%    MPKI:0.00
PC:2c92e     Total:8      MisBP:0   MisRate:0.00%    MPKI:0.00
PC:2c910     Total:8      MisBP:0   MisRate:0.00%    MPKI:0.00
PC:2c93c     Total:8      MisBP:0   MisRate:0.00%    MPKI:0.00
PC:4aa00     Total:13      MisBP:0   MisRate:0.00%    MPKI:0.00
PC:4aa04     Total:13      MisBP:0   MisRate:0.00%    MPKI:0.00
PC:4aa16     Total:13      MisBP:0   MisRate:0.00%    MPKI:0.00
PC:2cd32     Total:69      MisBP:0   MisRate:0.00%    MPKI:0.00
PC:4aa1a     Total:12      MisBP:0   MisRate:0.00%    MPKI:0.00
PC:2cd36     Total:69      MisBP:0   MisRate:0.00%    MPKI:0.00
PC:4aa1e     Total:6      MisBP:0   MisRate:0.00%    MPKI:0.00
PC:2cd3a     Total:79      MisBP:0   MisRate:0.00%    MPKI:0.00
PC:2c8fa     Total:9      MisBP:0   MisRate:0.00%    MPKI:0.00
PC:2c8e0     Total:10      MisBP:0   MisRate:0.00%    MPKI:0.00
PC:2c8e4     Total:10      MisBP:0   MisRate:0.00%    MPKI:0.00
PC:2c8e6     Total:10      MisBP:0   MisRate:0.00%    MPKI:0.00
PC:2c8e8     Total:10      MisBP:0   MisRate:0.00%    MPKI:0.00
PC:2c8ec     Total:10      MisBP:0   MisRate:0.00%    MPKI:0.00
PC:2c8ee     Total:10      MisBP:0   MisRate:0.00%    MPKI:0.00
PC:2c8f2     Total:9      MisBP:0   MisRate:0.00%    MPKI:0.00
PC:2c8f4     Total:9      MisBP:0   MisRate:0.00%    MPKI:0.00
PC:2c8f6     Total:9      MisBP:0   MisRate:0.00%    MPKI:0.00
PC:4aa22     Total:6      MisBP:0   MisRate:0.00%    MPKI:0.00
PC:2c8fe     Total:9      MisBP:0   MisRate:0.00%    MPKI:0.00
PC:2c900     Total:8      MisBP:0   MisRate:0.00%    MPKI:0.00
PC:2c904     Total:8      MisBP:0   MisRate:0.00%    MPKI:0.00
PC:2c906     Total:8      MisBP:0   MisRate:0.00%    MPKI:0.00
PC:2c908     Total:8      MisBP:0   MisRate:0.00%    MPKI:0.00
PC:2c90a     Total:8      MisBP:0   MisRate:0.00%    MPKI:0.00
PC:2c90c     Total:8      MisBP:0   MisRate:0.00%    MPKI:0.00
PC:2c90e     Total:8      MisBP:0   MisRate:0.00%    MPKI:0.00
PC:10f7a     Total:1      MisBP:0   MisRate:0.00%    MPKI:0.00
PC:32298     Total:12      MisBP:0   MisRate:0.00%    MPKI:0.00
PC:322a8     Total:3      MisBP:0   MisRate:0.00%    MPKI:0.00
PC:2c482     Total:2      MisBP:0   MisRate:0.00%    MPKI:0.00
PC:10f5c     Total:212      MisBP:0   MisRate:0.00%    MPKI:0.00
PC:2c486     Total:2      MisBP:0   MisRate:0.00%    MPKI:0.00
PC:10f72     Total:1      MisBP:0   MisRate:0.00%    MPKI:0.00
PC:2c49c     Total:2      MisBP:0   MisRate:0.00%    MPKI:0.00
PC:10f76     Total:1      MisBP:0   MisRate:0.00%    MPKI:0.00
PC:2c4a0     Total:2      MisBP:0   MisRate:0.00%    MPKI:0.00
PC:11df2     Total:80      MisBP:0   MisRate:0.00%    MPKI:0.00
PC:2c4a4     Total:2      MisBP:0   MisRate:0.00%    MPKI:0.00
PC:2d7f0     Total:2      MisBP:0   MisRate:0.00%    MPKI:0.00
PC:2d7f4     Total:2      MisBP:0   MisRate:0.00%    MPKI:0.00
PC:2d7fc     Total:2      MisBP:0   MisRate:0.00%    MPKI:0.00
PC:2d8b6     Total:8      MisBP:0   MisRate:0.00%    MPKI:0.00
PC:2d8b8     Total:8      MisBP:0   MisRate:0.00%    MPKI:0.00
PC:2d8bc     Total:8      MisBP:0   MisRate:0.00%    MPKI:0.00
PC:2d8ca     Total:8      MisBP:0   MisRate:0.00%    MPKI:0.00
PC:2d8d4     Total:8      MisBP:0   MisRate:0.00%    MPKI:0.00
PC:3f6b0     Total:7      MisBP:0   MisRate:0.00%    MPKI:0.00
PC:2cd3e     Total:73      MisBP:0   MisRate:0.00%    MPKI:0.00
PC:4aa26     Total:6      MisBP:0   MisRate:0.00%    MPKI:0.00
PC:152e2     Total:89      MisBP:0   MisRate:0.00%    MPKI:0.00
PC:3f680     Total:8      MisBP:0   MisRate:0.00%    MPKI:0.00
PC:3f68a     Total:8      MisBP:0   MisRate:0.00%    MPKI:0.00
PC:152f4     Total:84      MisBP:0   MisRate:0.00%    MPKI:0.00
PC:3f692     Total:8      MisBP:0   MisRate:0.00%    MPKI:0.00
PC:152f8     Total:84      MisBP:0   MisRate:0.00%    MPKI:0.00
PC:3f696     Total:8      MisBP:0   MisRate:0.00%    MPKI:0.00
PC:2c8de     Total:10      MisBP:0   MisRate:0.00%    MPKI:0.00
PC:1531a     Total:79      MisBP:0   MisRate:0.00%    MPKI:0.00
PC:3f6b8     Total:7      MisBP:0   MisRate:0.00%    MPKI:0.00
PC:3f6bc     Total:2      MisBP:0   MisRate:0.00%    MPKI:0.00
PC:1532e     Total:35064      MisBP:0   MisRate:0.00%    MPKI:0.00
PC:3f6cc     Total:1      MisBP:0   MisRate:0.00%    MPKI:0.00
PC:2e0ae     Total:33      MisBP:0   MisRate:0.00%    MPKI:0.00
PC:3f6e0     Total:1      MisBP:0   MisRate:0.00%    MPKI:0.00
PC:32292     Total:6      MisBP:0   MisRate:0.00%    MPKI:0.00
PC:1554e     Total:95      MisBP:0   MisRate:0.00%    MPKI:0.00
PC:2d7dc     Total:4      MisBP:0   MisRate:0.00%    MPKI:0.00
PC:15538     Total:88      MisBP:0   MisRate:0.00%    MPKI:0.00
PC:2d7ea     Total:4      MisBP:0   MisRate:0.00%    MPKI:0.00
PC:15540     Total:97      MisBP:0   MisRate:0.00%    MPKI:0.00
PC:15544     Total:97      MisBP:0   MisRate:0.00%    MPKI:0.00
PC:15546     Total:96      MisBP:0   MisRate:0.00%    MPKI:0.00
PC:2d7f8     Total:2      MisBP:0   MisRate:0.00%    MPKI:0.00
PC:15548     Total:96      MisBP:0   MisRate:0.00%    MPKI:0.00
PC:1554c     Total:95      MisBP:0   MisRate:0.00%    MPKI:0.00
PC:1552a     Total:91      MisBP:0   MisRate:0.00%    MPKI:0.00
PC:2c498     Total:2      MisBP:0   MisRate:0.00%    MPKI:0.00
PC:109ce     Total:94      MisBP:0   MisRate:0.00%    MPKI:0.00
PC:30e74     Total:53      MisBP:0   MisRate:0.00%    MPKI:0.00
PC:108fe     Total:119      MisBP:0   MisRate:0.00%    MPKI:0.00
PC:26eac     Total:11      MisBP:0   MisRate:0.00%    MPKI:0.00
PC:10a08     Total:25      MisBP:0   MisRate:0.00%    MPKI:0.00
PC:35e2a     Total:38      MisBP:0   MisRate:0.00%    MPKI:0.00
PC:10a14     Total:20      MisBP:0   MisRate:0.00%    MPKI:0.00
PC:35e36     Total:35      MisBP:0   MisRate:0.00%    MPKI:0.00
PC:10966     Total:74      MisBP:0   MisRate:0.00%    MPKI:0.00
PC:1160c     Total:18444      MisBP:0   MisRate:0.00%    MPKI:0.00
PC:2cb36     Total:16      MisBP:0   MisRate:0.00%    MPKI:0.00
PC:4a9fa     Total:25      MisBP:0   MisRate:0.00%    MPKI:0.00
PC:1095a     Total:98      MisBP:0   MisRate:0.00%    MPKI:0.00
PC:30e00     Total:50      MisBP:0   MisRate:0.00%    MPKI:0.00
PC:1095e     Total:74      MisBP:0   MisRate:0.00%    MPKI:0.00
PC:30e04     Total:100      MisBP:0   MisRate:0.00%    MPKI:0.00
PC:10962     Total:74      MisBP:0   MisRate:0.00%    MPKI:0.00
PC:30e08     Total:50      MisBP:0   MisRate:0.00%    MPKI:0.00
PC:10a20     Total:16      MisBP:0   MisRate:0.00%    MPKI:0.00
PC:30e0c     Total:50      MisBP:0   MisRate:0.00%    MPKI:0.00
PC:30e10     Total:50      MisBP:0   MisRate:0.00%    MPKI:0.00
PC:30e14     Total:50      MisBP:0   MisRate:0.00%    MPKI:0.00
PC:10992     Total:83      MisBP:0   MisRate:0.00%    MPKI:0.00
PC:30e38     Total:89      MisBP:0   MisRate:0.00%    MPKI:0.00
PC:10996     Total:59      MisBP:0   MisRate:0.00%    MPKI:0.00
PC:30e3c     Total:89      MisBP:0   MisRate:0.00%    MPKI:0.00
PC:15512     Total:124      MisBP:0   MisRate:0.00%    MPKI:0.00
PC:155da     Total:16      MisBP:0   MisRate:0.00%    MPKI:0.00
PC:2bb66     Total:31      MisBP:0   MisRate:0.00%    MPKI:0.00
PC:155b8     Total:14      MisBP:0   MisRate:0.00%    MPKI:0.00
PC:2bb6a     Total:31      MisBP:0   MisRate:0.00%    MPKI:0.00
PC:155bc     Total:14      MisBP:0   MisRate:0.00%    MPKI:0.00
PC:155c0     Total:14      MisBP:0   MisRate:0.00%    MPKI:0.00
PC:4a9d0     Total:26      MisBP:0   MisRate:0.00%    MPKI:0.00
PC:2f4aa     Total:4      MisBP:0   MisRate:0.00%    MPKI:0.00
PC:4a9d4     Total:26      MisBP:0   MisRate:0.00%    MPKI:0.00
PC:2bb88     Total:2      MisBP:0   MisRate:0.00%    MPKI:0.00
PC:2bbb8     Total:1      MisBP:0   MisRate:0.00%    MPKI:0.00
PC:155e0     Total:16      MisBP:0   MisRate:0.00%    MPKI:0.00
PC:31d00     Total:8      MisBP:0   MisRate:0.00%    MPKI:0.00
PC:2cd88     Total:293      MisBP:0   MisRate:0.00%    MPKI:0.00
PC:31d04     Total:4      MisBP:0   MisRate:0.00%    MPKI:0.00
PC:31d08     Total:8      MisBP:0   MisRate:0.00%    MPKI:0.00
PC:31d0c     Total:4      MisBP:0   MisRate:0.00%    MPKI:0.00
PC:31d10     Total:8      MisBP:0   MisRate:0.00%    MPKI:0.00
PC:2c8da     Total:10      MisBP:0   MisRate:0.00%    MPKI:0.00
PC:155fc     Total:34      MisBP:0   MisRate:0.00%    MPKI:0.00
PC:10a24     Total:16      MisBP:0   MisRate:0.00%    MPKI:0.00
PC:2bb70     Total:31      MisBP:0   MisRate:0.00%    MPKI:0.00
PC:155c2     Total:2      MisBP:0   MisRate:0.00%    MPKI:0.00
PC:2bb72     Total:31      MisBP:0   MisRate:0.00%    MPKI:0.00
PC:155c4     Total:2      MisBP:0   MisRate:0.00%    MPKI:0.00
PC:109fa     Total:27      MisBP:0   MisRate:0.00%    MPKI:0.00
PC:30ea0     Total:46      MisBP:0   MisRate:0.00%    MPKI:0.00
PC:155f8     Total:5      MisBP:0   MisRate:0.00%    MPKI:0.00
PC:2bba6     Total:1      MisBP:0   MisRate:0.00%    MPKI:0.00
PC:2e0c0     Total:35      MisBP:0   MisRate:0.00%    MPKI:0.00
PC:2bbaa     Total:1      MisBP:0   MisRate:0.00%    MPKI:0.00
PC:2bbac     Total:1      MisBP:0   MisRate:0.00%    MPKI:0.00
PC:2bbb0     Total:1      MisBP:0   MisRate:0.00%    MPKI:0.00
PC:15604     Total:4      MisBP:0   MisRate:0.00%    MPKI:0.00
PC:2bbb2     Total:1      MisBP:0   MisRate:0.00%    MPKI:0.00
PC:15606     Total:1      MisBP:0   MisRate:0.00%    MPKI:0.00
PC:2bbb4     Total:1      MisBP:0   MisRate:0.00%    MPKI:0.00
PC:1560a     Total:1      MisBP:0   MisRate:0.00%    MPKI:0.00
PC:153ca     Total:218      MisBP:0   MisRate:0.00%    MPKI:0.00
PC:156c2     Total:148      MisBP:0   MisRate:0.00%    MPKI:0.00
PC:156c6     Total:40      MisBP:0   MisRate:0.00%    MPKI:0.00
PC:156c8     Total:40      MisBP:0   MisRate:0.00%    MPKI:0.00
PC:153c0     Total:108      MisBP:0   MisRate:0.00%    MPKI:0.00
PC:10a18     Total:16      MisBP:0   MisRate:0.00%    MPKI:0.00
PC:153c2     Total:108      MisBP:0   MisRate:0.00%    MPKI:0.00
PC:2d674     Total:27      MisBP:0   MisRate:0.00%    MPKI:0.00
PC:153c6     Total:108      MisBP:0   MisRate:0.00%    MPKI:0.00
PC:2d678     Total:27      MisBP:0   MisRate:0.00%    MPKI:0.00
PC:156be     Total:148      MisBP:0   MisRate:0.00%    MPKI:0.00
PC:2d67c     Total:27      MisBP:0   MisRate:0.00%    MPKI:0.00
PC:10a22     Total:16      MisBP:0   MisRate:0.00%    MPKI:0.00
PC:153ce     Total:217      MisBP:0   MisRate:0.00%    MPKI:0.00
PC:2d680     Total:19      MisBP:0   MisRate:0.00%    MPKI:0.00
PC:153d2     Total:217      MisBP:0   MisRate:0.00%    MPKI:0.00
PC:2d684     Total:19      MisBP:0   MisRate:0.00%    MPKI:0.00
PC:2d686     Total:19      MisBP:0   MisRate:0.00%    MPKI:0.00
PC:153d6     Total:185      MisBP:0   MisRate:0.00%    MPKI:0.00
PC:2d688     Total:19      MisBP:0   MisRate:0.00%    MPKI:0.00
PC:2c988     Total:420      MisBP:0   MisRate:0.00%    MPKI:0.00
PC:31ce8     Total:15      MisBP:0   MisRate:0.00%    MPKI:0.00
PC:2cd6c     Total:15      MisBP:0   MisRate:0.00%    MPKI:0.00
PC:31cec     Total:5      MisBP:0   MisRate:0.00%    MPKI:0.00
PC:2cd70     Total:15      MisBP:0   MisRate:0.00%    MPKI:0.00
PC:2cd72     Total:15      MisBP:0   MisRate:0.00%    MPKI:0.00
PC:2cd76     Total:15      MisBP:0   MisRate:0.00%    MPKI:0.00
PC:2cd7a     Total:15      MisBP:0   MisRate:0.00%    MPKI:0.00
PC:2cd7e     Total:26      MisBP:0   MisRate:0.00%    MPKI:0.00
PC:2c986     Total:60      MisBP:0   MisRate:0.00%    MPKI:0.00
PC:153d8     Total:183      MisBP:0   MisRate:0.00%    MPKI:0.00
PC:30e96     Total:51      MisBP:0   MisRate:0.00%    MPKI:0.00
PC:109f0     Total:27      MisBP:0   MisRate:0.00%    MPKI:0.00
PC:156ca     Total:157      MisBP:0   MisRate:0.00%    MPKI:0.00
PC:156cc     Total:157      MisBP:0   MisRate:0.00%    MPKI:0.00
PC:156ce     Total:157      MisBP:0   MisRate:0.00%    MPKI:0.00
PC:156d0     Total:157      MisBP:0   MisRate:0.00%    MPKI:0.00
PC:156d4     Total:942      MisBP:0   MisRate:0.00%    MPKI:0.00
PC:330f8     Total:43      MisBP:0   MisRate:0.00%    MPKI:0.00
PC:15416     Total:88      MisBP:0   MisRate:0.00%    MPKI:0.00
PC:330f0     Total:79      MisBP:0   MisRate:0.00%    MPKI:0.00
PC:15408     Total:132      MisBP:0   MisRate:0.00%    MPKI:0.00
PC:330f2     Total:65      MisBP:0   MisRate:0.00%    MPKI:0.00
PC:1540c     Total:88      MisBP:0   MisRate:0.00%    MPKI:0.00
PC:330f6     Total:43      MisBP:0   MisRate:0.00%    MPKI:0.00
PC:1540e     Total:88      MisBP:0   MisRate:0.00%    MPKI:0.00
PC:330fa     Total:43      MisBP:0   MisRate:0.00%    MPKI:0.00
PC:15412     Total:88      MisBP:0   MisRate:0.00%    MPKI:0.00
PC:330fe     Total:43      MisBP:0   MisRate:0.00%    MPKI:0.00
PC:15404     Total:132      MisBP:0   MisRate:0.00%    MPKI:0.00
PC:1541e     Total:74      MisBP:0   MisRate:0.00%    MPKI:0.00
PC:15422     Total:74      MisBP:0   MisRate:0.00%    MPKI:0.00
PC:15426     Total:74      MisBP:0   MisRate:0.00%    MPKI:0.00
PC:33110     Total:104      MisBP:0   MisRate:0.00%    MPKI:0.00
PC:15428     Total:74      MisBP:0   MisRate:0.00%    MPKI:0.00
PC:10972     Total:73      MisBP:0   MisRate:0.00%    MPKI:0.00
PC:30e18     Total:50      MisBP:0   MisRate:0.00%    MPKI:0.00
PC:33114     Total:50      MisBP:0   MisRate:0.00%    MPKI:0.00
PC:1542c     Total:74      MisBP:0   MisRate:0.00%    MPKI:0.00
PC:153f2     Total:87      MisBP:0   MisRate:0.00%    MPKI:0.00
PC:2d68a     Total:19      MisBP:0   MisRate:0.00%    MPKI:0.00
PC:153dc     Total:183      MisBP:0   MisRate:0.00%    MPKI:0.00
PC:2d68e     Total:19      MisBP:0   MisRate:0.00%    MPKI:0.00
PC:153e0     Total:183      MisBP:0   MisRate:0.00%    MPKI:0.00
PC:2d692     Total:19      MisBP:0   MisRate:0.00%    MPKI:0.00
PC:2d696     Total:17      MisBP:0   MisRate:0.00%    MPKI:0.00
PC:153e8     Total:88      MisBP:0   MisRate:0.00%    MPKI:0.00
PC:153ec     Total:88      MisBP:0   MisRate:0.00%    MPKI:0.00
PC:153f0     Total:87      MisBP:0   MisRate:0.00%    MPKI:0.00
PC:2cd6a     Total:15      MisBP:0   MisRate:0.00%    MPKI:0.00
PC:2d6a4     Total:11      MisBP:0   MisRate:0.00%    MPKI:0.00
PC:153f6     Total:87      MisBP:0   MisRate:0.00%    MPKI:0.00
PC:2d6a8     Total:11      MisBP:0   MisRate:0.00%    MPKI:0.00
PC:153fa     Total:129      MisBP:0   MisRate:0.00%    MPKI:0.00
PC:153fe     Total:129      MisBP:0   MisRate:0.00%    MPKI:0.00
PC:330e8     Total:237      MisBP:0   MisRate:0.00%    MPKI:0.00
PC:15400     Total:132      MisBP:0   MisRate:0.00%    MPKI:0.00
PC:330ec     Total:79      MisBP:0   MisRate:0.00%    MPKI:0.00
PC:2cdba     Total:1      MisBP:0   MisRate:0.00%    MPKI:0.00
PC:108f2     Total:77      MisBP:0   MisRate:0.00%    MPKI:0.00
PC:26ea0     Total:20      MisBP:0   MisRate:0.00%    MPKI:0.00
PC:2cdac     Total:65      MisBP:0   MisRate:0.00%    MPKI:0.00
PC:2bb42     Total:31      MisBP:0   MisRate:0.00%    MPKI:0.00
PC:2cdb0     Total:65      MisBP:0   MisRate:0.00%    MPKI:0.00
PC:15598     Total:189      MisBP:0   MisRate:0.00%    MPKI:0.00
PC:2bb46     Total:31      MisBP:0   MisRate:0.00%    MPKI:0.00
PC:2cdb4     Total:62      MisBP:0   MisRate:0.00%    MPKI:0.00
PC:2cdb8     Total:62      MisBP:0   MisRate:0.00%    MPKI:0.00
PC:2cab2     Total:32      MisBP:0   MisRate:0.00%    MPKI:0.00
PC:2cdbe     Total:1      MisBP:0   MisRate:0.00%    MPKI:0.00
PC:11598     Total:12108      MisBP:0   MisRate:0.00%    MPKI:0.00
PC:2cac2     Total:30      MisBP:0   MisRate:0.00%    MPKI:0.00
PC:10902     Total:119      MisBP:0   MisRate:0.00%    MPKI:0.00
PC:26eb0     Total:2      MisBP:0   MisRate:0.00%    MPKI:0.00
PC:2cade     Total:30      MisBP:0   MisRate:0.00%    MPKI:0.00
PC:10a0c     Total:25      MisBP:0   MisRate:0.00%    MPKI:0.00
PC:35e2e     Total:37      MisBP:0   MisRate:0.00%    MPKI:0.00
PC:115b8     Total:17652      MisBP:0   MisRate:0.00%    MPKI:0.00
PC:11550     Total:83      MisBP:0   MisRate:0.00%    MPKI:0.00
PC:2ca40     Total:67      MisBP:0   MisRate:0.00%    MPKI:0.00
PC:2ca42     Total:67      MisBP:0   MisRate:0.00%    MPKI:0.00
PC:1151a     Total:232      MisBP:0   MisRate:0.00%    MPKI:0.00
PC:11526     Total:142      MisBP:0   MisRate:0.00%    MPKI:0.00
PC:2ca50     Total:18      MisBP:0   MisRate:0.00%    MPKI:0.00
PC:26e3e     Total:186      MisBP:0   MisRate:0.00%    MPKI:0.00
PC:11548     Total:83      MisBP:0   MisRate:0.00%    MPKI:0.00
PC:2ca72     Total:93      MisBP:0   MisRate:0.00%    MPKI:0.00
PC:26e60     Total:44      MisBP:0   MisRate:0.00%    MPKI:0.00
PC:2cae2     Total:30      MisBP:0   MisRate:0.00%    MPKI:0.00
PC:2ca7a     Total:84      MisBP:0   MisRate:0.00%    MPKI:0.00
PC:11574     Total:73      MisBP:0   MisRate:0.00%    MPKI:0.00
PC:2ca9e     Total:81      MisBP:0   MisRate:0.00%    MPKI:0.00
PC:26e8c     Total:88      MisBP:0   MisRate:0.00%    MPKI:0.00
PC:1157c     Total:24729      MisBP:0   MisRate:0.00%    MPKI:0.00
PC:2caa6     Total:32      MisBP:0   MisRate:0.00%    MPKI:0.00
PC:26e94     Total:44      MisBP:0   MisRate:0.00%    MPKI:0.00
PC:11588     Total:23665      MisBP:0   MisRate:0.00%    MPKI:0.00
PC:31cd8     Total:21      MisBP:0   MisRate:0.00%    MPKI:0.00
PC:4aa38     Total:1      MisBP:0   MisRate:0.00%    MPKI:0.00
PC:31ccc     Total:8      MisBP:0   MisRate:0.00%    MPKI:0.00
PC:2cd50     Total:73      MisBP:0   MisRate:0.00%    MPKI:0.00
PC:2cd52     Total:73      MisBP:0   MisRate:0.00%    MPKI:0.00
PC:4aa3c     Total:1      MisBP:0   MisRate:0.00%    MPKI:0.00
PC:31cd0     Total:23      MisBP:0   MisRate:0.00%    MPKI:0.00
PC:31cd4     Total:7      MisBP:0   MisRate:0.00%    MPKI:0.00
PC:2cd58     Total:21      MisBP:0   MisRate:0.00%    MPKI:0.00
PC:2cd5a     Total:21      MisBP:0   MisRate:0.00%    MPKI:0.00
PC:2cd4e     Total:73      MisBP:0   MisRate:0.00%    MPKI:0.00
PC:2cd5c     Total:21      MisBP:0   MisRate:0.00%    MPKI:0.00
PC:2cd5e     Total:21      MisBP:0   MisRate:0.00%    MPKI:0.00
PC:31cdc     Total:7      MisBP:0   MisRate:0.00%    MPKI:0.00
PC:2cd60     Total:21      MisBP:0   MisRate:0.00%    MPKI:0.00
PC:31ce0     Total:21      MisBP:0   MisRate:0.00%    MPKI:0.00
PC:2cd64     Total:21      MisBP:0   MisRate:0.00%    MPKI:0.00
PC:31ce4     Total:7      MisBP:0   MisRate:0.00%    MPKI:0.00
PC:2cd68     Total:18      MisBP:0   MisRate:0.00%    MPKI:0.00
PC:4a9be     Total:29      MisBP:0   MisRate:0.00%    MPKI:0.00
PC:35e32     Total:37      MisBP:0   MisRate:0.00%    MPKI:0.00
PC:115c0     Total:33770      MisBP:0   MisRate:0.00%    MPKI:0.00
PC:2caea     Total:30      MisBP:0   MisRate:0.00%    MPKI:0.00
PC:115c4     Total:33768      MisBP:0   MisRate:0.00%    MPKI:0.00
PC:2caee     Total:30      MisBP:0   MisRate:0.00%    MPKI:0.00
PC:115c8     Total:33765      MisBP:0   MisRate:0.00%    MPKI:0.00
PC:2caf2     Total:30      MisBP:0   MisRate:0.00%    MPKI:0.00
PC:2cafa     Total:30      MisBP:0   MisRate:0.00%    MPKI:0.00
PC:117ac     Total:10736      MisBP:0   MisRate:0.00%    MPKI:0.00
PC:10f4a     Total:314      MisBP:0   MisRate:0.00%    MPKI:0.00
PC:31cb8     Total:9      MisBP:0   MisRate:0.00%    MPKI:0.00
PC:2cd3c     Total:79      MisBP:0   MisRate:0.00%    MPKI:0.00
PC:2cd42     Total:73      MisBP:0   MisRate:0.00%    MPKI:0.00
PC:2cd46     Total:73      MisBP:0   MisRate:0.00%    MPKI:0.00
PC:4aa32     Total:1      MisBP:0   MisRate:0.00%    MPKI:0.00
PC:22e52     Total:20      MisBP:0   MisRate:0.00%    MPKI:0.00
PC:2cd4a     Total:73      MisBP:0   MisRate:0.00%    MPKI:0.00
PC:22e56     Total:60      MisBP:0   MisRate:0.00%    MPKI:0.00
PC:155d6     Total:35      MisBP:0   MisRate:0.00%    MPKI:0.00
PC:2bb74     Total:31      MisBP:0   MisRate:0.00%    MPKI:0.00
PC:155ca     Total:5      MisBP:0   MisRate:0.00%    MPKI:0.00
PC:2bb78     Total:31      MisBP:0   MisRate:0.00%    MPKI:0.00
PC:2bb7a     Total:31      MisBP:0   MisRate:0.00%    MPKI:0.00
PC:2bb7e     Total:31      MisBP:0   MisRate:0.00%    MPKI:0.00
PC:155d2     Total:5      MisBP:0   MisRate:0.00%    MPKI:0.00
PC:2bb80     Total:31      MisBP:0   MisRate:0.00%    MPKI:0.00
PC:155d4     Total:5      MisBP:0   MisRate:0.00%    MPKI:0.00
PC:2bb82     Total:31      MisBP:0   MisRate:0.00%    MPKI:0.00
PC:2bb6c     Total:31      MisBP:0   MisRate:0.00%    MPKI:0.00
PC:2bb84     Total:31      MisBP:0   MisRate:0.00%    MPKI:0.00
PC:2bb8c     Total:2      MisBP:0   MisRate:0.00%    MPKI:0.00
PC:155e2     Total:3      MisBP:0   MisRate:0.00%    MPKI:0.00
PC:2bb90     Total:2      MisBP:0   MisRate:0.00%    MPKI:0.00
PC:155e4     Total:3      MisBP:0   MisRate:0.00%    MPKI:0.00
PC:2bb92     Total:2      MisBP:0   MisRate:0.00%    MPKI:0.00
PC:155e8     Total:3      MisBP:0   MisRate:0.00%    MPKI:0.00
PC:2bb96     Total:2      MisBP:0   MisRate:0.00%    MPKI:0.00
PC:155ec     Total:1      MisBP:0   MisRate:0.00%    MPKI:0.00
PC:1558e     Total:178      MisBP:0   MisRate:0.00%    MPKI:0.00
PC:4aa28     Total:6      MisBP:0   MisRate:0.00%    MPKI:0.00
PC:2ddd2     Total:33      MisBP:0   MisRate:0.00%    MPKI:0.00
PC:31cc0     Total:8      MisBP:0   MisRate:0.00%    MPKI:0.00
PC:4aa2c     Total:6      MisBP:0   MisRate:0.00%    MPKI:0.00
PC:2ddd6     Total:33      MisBP:0   MisRate:0.00%    MPKI:0.00
PC:2ddda     Total:33      MisBP:0   MisRate:0.00%    MPKI:0.00
PC:2ddde     Total:33      MisBP:0   MisRate:0.00%    MPKI:0.00
PC:2dde2     Total:33      MisBP:0   MisRate:0.00%    MPKI:0.00
PC:2dde4     Total:33      MisBP:0   MisRate:0.00%    MPKI:0.00
PC:2bb9a     Total:2      MisBP:0   MisRate:0.00%    MPKI:0.00
PC:2bb3c     Total:32      MisBP:0   MisRate:0.00%    MPKI:0.00
PC:15592     Total:178      MisBP:0   MisRate:0.00%    MPKI:0.00
PC:2bb40     Total:93      MisBP:0   MisRate:0.00%    MPKI:0.00
PC:1559a     Total:1240      MisBP:0   MisRate:0.00%    MPKI:0.00
PC:2bb48     Total:31      MisBP:0   MisRate:0.00%    MPKI:0.00
PC:2bb52     Total:31      MisBP:0   MisRate:0.00%    MPKI:0.00
PC:2bb64     Total:31      MisBP:0   MisRate:0.00%    MPKI:0.00
PC:2bb68     Total:31      MisBP:0   MisRate:0.00%    MPKI:0.00
PC:3f6e6     Total:1      MisBP:0   MisRate:0.00%    MPKI:0.00
PC:1533e     Total:37520      MisBP:0   MisRate:0.00%    MPKI:0.00
PC:2e0aa     Total:33      MisBP:0   MisRate:0.00%    MPKI:0.00
PC:15344     Total:66839      MisBP:0   MisRate:0.00%    MPKI:0.00
PC:3f6e2     Total:1      MisBP:0   MisRate:0.00%    MPKI:0.00
PC:2e0b0     Total:33      MisBP:0   MisRate:0.00%    MPKI:0.00
PC:15346     Total:66823      MisBP:0   MisRate:0.00%    MPKI:0.00
PC:3f6e4     Total:1      MisBP:0   MisRate:0.00%    MPKI:0.00
PC:2e0b2     Total:33      MisBP:0   MisRate:0.00%    MPKI:0.00
PC:15348     Total:66808      MisBP:0   MisRate:0.00%    MPKI:0.00
PC:2e0a8     Total:33      MisBP:0   MisRate:0.00%    MPKI:0.00
PC:2e0b4     Total:33      MisBP:0   MisRate:0.00%    MPKI:0.00
PC:3f6e8     Total:1      MisBP:0   MisRate:0.00%    MPKI:0.00
PC:2e0b6     Total:35      MisBP:0   MisRate:0.00%    MPKI:0.00
PC:1534c     Total:66793      MisBP:0   MisRate:0.00%    MPKI:0.00
PC:2e0b8     Total:35      MisBP:0   MisRate:0.00%    MPKI:0.00
PC:1534e     Total:66775      MisBP:0   MisRate:0.00%    MPKI:0.00
PC:2e0ba     Total:35      MisBP:0   MisRate:0.00%    MPKI:0.00
PC:2e0be     Total:35      MisBP:0   MisRate:0.00%    MPKI:0.00
PC:2d676     Total:27      MisBP:0   MisRate:0.00%    MPKI:0.00
PC:155ee     Total:5      MisBP:0   MisRate:0.00%    MPKI:0.00
PC:2bb9c     Total:2      MisBP:0   MisRate:0.00%    MPKI:0.00
PC:155f0     Total:5      MisBP:0   MisRate:0.00%    MPKI:0.00
PC:2bb9e     Total:2      MisBP:0   MisRate:0.00%    MPKI:0.00
PC:2bba0     Total:2      MisBP:0   MisRate:0.00%    MPKI:0.00
PC:2bba4     Total:10      MisBP:0   MisRate:0.00%    MPKI:0.00
PC:2d66c     Total:36      MisBP:0   MisRate:0.00%    MPKI:0.00
PC:10a12     Total:25      MisBP:0   MisRate:0.00%    MPKI:0.00
PC:2d670     Total:28      MisBP:0   MisRate:0.00%    MPKI:0.00
PC:31cbc     Total:9      MisBP:0   MisRate:0.00%    MPKI:0.00
PC:10a1c     Total:16      MisBP:0   MisRate:0.00%    MPKI:0.00
PC:2d780     Total:3      MisBP:0   MisRate:0.00%    MPKI:0.00
PC:2d78e     Total:1      MisBP:0   MisRate:0.00%    MPKI:0.00
PC:2d792     Total:1      MisBP:0   MisRate:0.00%    MPKI:0.00
PC:3f6d8     Total:1      MisBP:0   MisRate:0.00%    MPKI:0.00
PC:2e0a6     Total:33      MisBP:0   MisRate:0.00%    MPKI:0.00
PC:1533c     Total:37526      MisBP:0   MisRate:0.00%    MPKI:0.00
PC:3f6da     Total:1      MisBP:0   MisRate:0.00%    MPKI:0.00
PC:10f60     Total:212      MisBP:0   MisRate:0.00%    MPKI:0.00
PC:2c480     Total:2      MisBP:0   MisRate:0.00%    MPKI:0.00
PC:33124     Total:1      MisBP:0   MisRate:0.00%    MPKI:0.00
PC:1543c     Total:126      MisBP:0   MisRate:0.00%    MPKI:0.00
PC:30e2c     Total:89      MisBP:0   MisRate:0.00%    MPKI:0.00
PC:10f5a     Total:217      MisBP:0   MisRate:0.00%    MPKI:0.00
PC:2c484     Total:2      MisBP:0   MisRate:0.00%    MPKI:0.00
PC:33128     Total:1      MisBP:0   MisRate:0.00%    MPKI:0.00
PC:15440     Total:123      MisBP:0   MisRate:0.00%    MPKI:0.00
PC:30e30     Total:89      MisBP:0   MisRate:0.00%    MPKI:0.00
PC:10f56     Total:167      MisBP:0   MisRate:0.00%    MPKI:0.00
PC:2c48a     Total:2      MisBP:0   MisRate:0.00%    MPKI:0.00
PC:3312c     Total:1      MisBP:0   MisRate:0.00%    MPKI:0.00
PC:15444     Total:64      MisBP:0   MisRate:0.00%    MPKI:0.00
PC:30e34     Total:89      MisBP:0   MisRate:0.00%    MPKI:0.00
PC:2c48c     Total:2      MisBP:0   MisRate:0.00%    MPKI:0.00
PC:15446     Total:63      MisBP:0   MisRate:0.00%    MPKI:0.00
PC:2c48e     Total:2      MisBP:0   MisRate:0.00%    MPKI:0.00
PC:33132     Total:1      MisBP:0   MisRate:0.00%    MPKI:0.00
PC:1544a     Total:63      MisBP:0   MisRate:0.00%    MPKI:0.00
PC:3311c     Total:47      MisBP:0   MisRate:0.00%    MPKI:0.00
PC:2c474     Total:3      MisBP:0   MisRate:0.00%    MPKI:0.00
PC:10976     Total:73      MisBP:0   MisRate:0.00%    MPKI:0.00
PC:30e1c     Total:49      MisBP:0   MisRate:0.00%    MPKI:0.00
PC:33118     Total:48      MisBP:0   MisRate:0.00%    MPKI:0.00
PC:15430     Total:128      MisBP:0   MisRate:0.00%    MPKI:0.00
PC:10f4e     Total:157      MisBP:0   MisRate:0.00%    MPKI:0.00
PC:2c478     Total:30      MisBP:0   MisRate:0.00%    MPKI:0.00
PC:1097a     Total:137      MisBP:0   MisRate:0.00%    MPKI:0.00
PC:30e20     Total:49      MisBP:0   MisRate:0.00%    MPKI:0.00
PC:10f68     Total:1      MisBP:0   MisRate:0.00%    MPKI:0.00
PC:15434     Total:128      MisBP:0   MisRate:0.00%    MPKI:0.00
PC:10f52     Total:157      MisBP:0   MisRate:0.00%    MPKI:0.00
PC:2c47c     Total:3      MisBP:0   MisRate:0.00%    MPKI:0.00
PC:30e24     Total:90      MisBP:0   MisRate:0.00%    MPKI:0.00
PC:33120     Total:40      MisBP:0   MisRate:0.00%    MPKI:0.00
PC:15438     Total:126      MisBP:0   MisRate:0.00%    MPKI:0.00
PC:10982     Total:174      MisBP:0   MisRate:0.00%    MPKI:0.00
PC:30e28     Total:89      MisBP:0   MisRate:0.00%    MPKI:0.00
PC:155c8     Total:5      MisBP:0   MisRate:0.00%    MPKI:0.00
PC:109d4     Total:90      MisBP:0   MisRate:0.00%    MPKI:0.00
PC:30e7a     Total:53      MisBP:0   MisRate:0.00%    MPKI:0.00
PC:154d6     Total:58      MisBP:0   MisRate:0.00%    MPKI:0.00
PC:2d788     Total:3      MisBP:0   MisRate:0.00%    MPKI:0.00
PC:154e6     Total:40      MisBP:0   MisRate:0.00%    MPKI:0.00
PC:2d798     Total:1      MisBP:0   MisRate:0.00%    MPKI:0.00
PC:155ea     Total:1      MisBP:0   MisRate:0.00%    MPKI:0.00
PC:155f4     Total:5      MisBP:0   MisRate:0.00%    MPKI:0.00
PC:155fa     Total:5      MisBP:0   MisRate:0.00%    MPKI:0.00
PC:1547e     Total:67      MisBP:0   MisRate:0.00%    MPKI:0.00
PC:155ce     Total:5      MisBP:0   MisRate:0.00%    MPKI:0.00
PC:2ddbe     Total:34      MisBP:0   MisRate:0.00%    MPKI:0.00
PC:2ddc2     Total:34      MisBP:0   MisRate:0.00%    MPKI:0.00
PC:2ddc6     Total:34      MisBP:0   MisRate:0.00%    MPKI:0.00
PC:31cb4     Total:9      MisBP:0   MisRate:0.00%    MPKI:0.00
[...]
PC:15508     Total:116      MisBP:0   MisRate:0.00%    MPKI:0.00
PC:1093e     Total:141      MisBP:0   MisRate:0.00%    MPKI:0.00
PC:2d598     Total:78      MisBP:0   MisRate:0.00%    MPKI:0.00
PC:1093a     Total:148      MisBP:0   MisRate:0.00%    MPKI:0.00
PC:2d594     Total:87      MisBP:0   MisRate:0.00%    MPKI:0.00
PC:10938     Total:148      MisBP:0   MisRate:0.00%    MPKI:0.00
PC:152da     Total:89      MisBP:0   MisRate:0.00%    MPKI:0.00
PC:152d6     Total:89      MisBP:0   MisRate:0.00%    MPKI:0.00
PC:31cf8     Total:10      MisBP:0   MisRate:0.00%    MPKI:0.00
PC:11dca     Total:97      MisBP:0   MisRate:0.00%    MPKI:0.00
PC:152e6     Total:84      MisBP:0   MisRate:0.00%    MPKI:0.00
PC:11dc4     Total:97      MisBP:0   MisRate:0.00%    MPKI:0.00
PC:11dc0     Total:97      MisBP:0   MisRate:0.00%    MPKI:0.00
PC:154fe     Total:36      MisBP:0   MisRate:0.00%    MPKI:0.00
PC:11dbc     Total:98      MisBP:0   MisRate:0.00%    MPKI:0.00
PC:154fa     Total:36      MisBP:0   MisRate:0.00%    MPKI:0.00
PC:2d5d8     Total:1      MisBP:0   MisRate:0.00%    MPKI:0.00
PC:1486c     Total:350      MisBP:0   MisRate:0.00%    MPKI:0.00
PC:2cb1e     Total:24      MisBP:0   MisRate:0.00%    MPKI:0.00
PC:15300     Total:82      MisBP:0   MisRate:0.00%    MPKI:0.00
PC:1564c     Total:158      MisBP:0   MisRate:0.00%    MPKI:0.00
PC:322a6     Total:3      MisBP:0   MisRate:0.00%    MPKI:0.00
PC:2d8fc     Total:76      MisBP:0   MisRate:0.00%    MPKI:0.00
PC:1564a     Total:158      MisBP:0   MisRate:0.00%    MPKI:0.00
PC:10968     Total:74      MisBP:0   MisRate:0.00%    MPKI:0.00
PC:10960     Total:74      MisBP:0   MisRate:0.00%    MPKI:0.00
PC:15306     Total:81      MisBP:0   MisRate:0.00%    MPKI:0.00
PC:2d5b8     Total:81      MisBP:0   MisRate:0.00%    MPKI:0.00
PC:2d5b4     Total:81      MisBP:0   MisRate:0.00%    MPKI:0.00
PC:4a9e2     Total:26      MisBP:0   MisRate:0.00%    MPKI:0.00
PC:10958     Total:98      MisBP:0   MisRate:0.00%    MPKI:0.00
PC:10954     Total:98      MisBP:0   MisRate:0.00%    MPKI:0.00
PC:152ee     Total:84      MisBP:0   MisRate:0.00%    MPKI:0.00
PC:10946     Total:98      MisBP:0   MisRate:0.00%    MPKI:0.00
PC:2d5a0     Total:78      MisBP:0   MisRate:0.00%    MPKI:0.00
PC:152ea     Total:84      MisBP:0   MisRate:0.00%    MPKI:0.00
PC:10942     Total:141      MisBP:0   MisRate:0.00%    MPKI:0.00
PC:2d59c     Total:78      MisBP:0   MisRate:0.00%    MPKI:0.00
PC:2efa2     Total:86      MisBP:0   MisRate:0.00%    MPKI:0.00
PC:2d7d6     Total:4      MisBP:0   MisRate:0.00%    MPKI:0.00
PC:1551a     Total:97      MisBP:0   MisRate:0.00%    MPKI:0.00
PC:2d7cc     Total:8      MisBP:0   MisRate:0.00%    MPKI:0.00
PC:2ca58     Total:18      MisBP:0   MisRate:0.00%    MPKI:0.00
PC:1152e     Total:141      MisBP:0   MisRate:0.00%    MPKI:0.00
PC:11dd8     Total:617      MisBP:0   MisRate:0.00%    MPKI:0.00
PC:15516     Total:124      MisBP:0   MisRate:0.00%    MPKI:0.00
PC:2d7c8     Total:36      MisBP:0   MisRate:0.00%    MPKI:0.00
PC:1481c     Total:375      MisBP:0   MisRate:0.00%    MPKI:0.00
PC:15524     Total:93      MisBP:0   MisRate:0.00%    MPKI:0.00
PC:2cace     Total:30      MisBP:0   MisRate:0.00%    MPKI:0.00
PC:1090e     Total:109      MisBP:0   MisRate:0.00%    MPKI:0.00
PC:26ebc     Total:28      MisBP:0   MisRate:0.00%    MPKI:0.00
PC:1550e     Total:124      MisBP:0   MisRate:0.00%    MPKI:0.00
PC:150c8     Total:56938      MisBP:0   MisRate:0.00%    MPKI:0.00
PC:2d910     Total:1      MisBP:0   MisRate:0.00%    MPKI:0.00
PC:1565e     Total:158      MisBP:0   MisRate:0.00%    MPKI:0.00
PC:322b8     Total:3      MisBP:0   MisRate:0.00%    MPKI:0.00
PC:2d768     Total:70      MisBP:0   MisRate:0.00%    MPKI:0.00
PC:109ae     Total:167      MisBP:0   MisRate:0.00%    MPKI:0.00
PC:15356     Total:62885      MisBP:0   MisRate:0.00%    MPKI:0.00
PC:2d4cc     Total:7      MisBP:0   MisRate:0.00%    MPKI:0.00
PC:10f70     Total:1      MisBP:0   MisRate:0.00%    MPKI:0.00
PC:10f6a     Total:1      MisBP:0   MisRate:0.00%    MPKI:0.00
PC:2d756     Total:13      MisBP:0   MisRate:0.00%    MPKI:0.00
PC:11d66     Total:136      MisBP:0   MisRate:0.00%    MPKI:0.00
PC:109ee     Total:27      MisBP:0   MisRate:0.00%    MPKI:0.00
PC:11d78     Total:222      MisBP:0   MisRate:0.00%    MPKI:0.00
PC:14842     Total:356      MisBP:0   MisRate:0.00%    MPKI:0.00
PC:154b6     Total:70      MisBP:0   MisRate:0.00%    MPKI:0.00
PC:1154c     Total:83      MisBP:0   MisRate:0.00%    MPKI:0.00
PC:15534     Total:88      MisBP:0   MisRate:0.00%    MPKI:0.00
PC:2d7e2     Total:4      MisBP:0   MisRate:0.00%    MPKI:0.00
PC:150e0     Total:27812766      MisBP:0   MisRate:0.00%    MPKI:0.00
PC:14836     Total:371      MisBP:0   MisRate:0.00%    MPKI:0.00
PC:2ca66     Total:17      MisBP:0   MisRate:0.00%    MPKI:0.00
PC:1153c     Total:94      MisBP:0   MisRate:0.00%    MPKI:0.00
PC:2cf42     Total:84      MisBP:0   MisRate:0.00%    MPKI:0.00
PC:156de     Total:210      MisBP:0   MisRate:0.00%    MPKI:0.00
PC:156dc     Total:195      MisBP:0   MisRate:0.00%    MPKI:0.00
PC:151a4     Total:12542175      MisBP:0   MisRate:0.00%    MPKI:0.00
PC:2d7ec     Total:4      MisBP:0   MisRate:0.00%    MPKI:0.00
PC:156d8     Total:195      MisBP:0   MisRate:0.00%    MPKI:0.00
PC:1568c     Total:157      MisBP:0   MisRate:0.00%    MPKI:0.00
PC:11dfc     Total:3      MisBP:0   MisRate:0.00%    MPKI:0.00
PC:2d5e6     Total:39      MisBP:0   MisRate:0.00%    MPKI:0.00
PC:1487a     Total:346      MisBP:0   MisRate:0.00%    MPKI:0.00
PC:2cb2c     Total:16      MisBP:0   MisRate:0.00%    MPKI:0.00
PC:4a9f0     Total:25      MisBP:0   MisRate:0.00%    MPKI:0.00
PC:1552e     Total:91      MisBP:0   MisRate:0.00%    MPKI:0.00
PC:322a2     Total:3      MisBP:0   MisRate:0.00%    MPKI:0.00
PC:151f8     Total:802994      MisBP:0   MisRate:0.00%    MPKI:0.00
PC:151ec     Total:804342      MisBP:0   MisRate:0.00%    MPKI:0.00
PC:11552     Total:82      MisBP:0   MisRate:0.00%    MPKI:0.00
PC:15626     Total:241      MisBP:0   MisRate:0.00%    MPKI:0.00
PC:32280     Total:36      MisBP:0   MisRate:0.00%    MPKI:0.00
PC:2d5a6     Total:78      MisBP:0   MisRate:0.00%    MPKI:0.00
PC:2d3ac     Total:38      MisBP:0   MisRate:0.00%    MPKI:0.00
PC:150fa     Total:13075468      MisBP:0   MisRate:0.00%    MPKI:0.00
PC:1483a     Total:370      MisBP:0   MisRate:0.00%    MPKI:0.00
PC:2cf48     Total:84      MisBP:0   MisRate:0.00%    MPKI:0.00
PC:150e4     Total:13902382      MisBP:0   MisRate:0.00%    MPKI:0.00
PC:11558     Total:80      MisBP:0   MisRate:0.00%    MPKI:0.00
PC:1488c     Total:372      MisBP:0   MisRate:0.00%    MPKI:0.00
PC:2d4a2     Total:1      MisBP:0   MisRate:0.00%    MPKI:0.00
PC:1154a     Total:83      MisBP:0   MisRate:0.00%    MPKI:0.00
PC:2ca74     Total:92      MisBP:0   MisRate:0.00%    MPKI:0.00
PC:11df4     Total:80      MisBP:0   MisRate:0.00%    MPKI:0.00
PC:2cb30     Total:16      MisBP:0   MisRate:0.00%    MPKI:0.00
PC:15532     Total:91      MisBP:0   MisRate:0.00%    MPKI:0.00
PC:1487e     Total:335      MisBP:0   MisRate:0.00%    MPKI:0.00
PC:2d5ea     Total:39      MisBP:0   MisRate:0.00%    MPKI:0.00
PC:150f2     Total:13885822      MisBP:0   MisRate:0.00%    MPKI:0.00
PC:2d7e4     Total:4      MisBP:0   MisRate:0.00%    MPKI:0.00
PC:151f0     Total:803976      MisBP:0   MisRate:0.00%    MPKI:0.00
PC:1562e     Total:241      MisBP:0   MisRate:0.00%    MPKI:0.00
PC:2d7e8     Total:4      MisBP:0   MisRate:0.00%    MPKI:0.00
PC:2ca7c     Total:84      MisBP:0   MisRate:0.00%    MPKI:0.00
PC:4a9f8     Total:25      MisBP:0   MisRate:0.00%    MPKI:0.00
PC:1562a     Total:241      MisBP:0   MisRate:0.00%    MPKI:0.00
PC:156e8     Total:220      MisBP:0   MisRate:0.00%    MPKI:0.00
PC:108ea     Total:77      MisBP:0   MisRate:0.00%    MPKI:0.00
PC:14882     Total:335      MisBP:0   MisRate:0.00%    MPKI:0.00
PC:2d5ee     Total:38      MisBP:0   MisRate:0.00%    MPKI:0.00
PC:15292     Total:5415184      MisBP:0   MisRate:0.00%    MPKI:0.00
PC:156e4     Total:210      MisBP:0   MisRate:0.00%    MPKI:0.00
PC:3228c     Total:6      MisBP:0   MisRate:0.00%    MPKI:0.00
PC:10f66     Total:168      MisBP:0   MisRate:0.00%    MPKI:0.00
PC:11de6     Total:587      MisBP:0   MisRate:0.00%    MPKI:0.00
PC:15632     Total:240      MisBP:0   MisRate:0.00%    MPKI:0.00
PC:1156e     Total:75      MisBP:0   MisRate:0.00%    MPKI:0.00
PC:1524c     Total:724776      MisBP:0   MisRate:0.00%    MPKI:0.00
PC:11540     Total:68      MisBP:0   MisRate:0.00%    MPKI:0.00
PC:2d608     Total:13      MisBP:0   MisRate:0.00%    MPKI:0.00
PC:2d728     Total:10      MisBP:0   MisRate:0.00%    MPKI:0.00
PC:2d5dc     Total:1      MisBP:0   MisRate:0.00%    MPKI:0.00
PC:15212     Total:13223076      MisBP:0   MisRate:0.00%    MPKI:0.00
PC:2cf5c     Total:4      MisBP:0   MisRate:0.00%    MPKI:0.00
PC:151e6     Total:804438      MisBP:0   MisRate:0.00%    MPKI:0.00
PC:15620     Total:249      MisBP:0   MisRate:0.00%    MPKI:0.00
PC:1156c     Total:75      MisBP:0   MisRate:0.00%    MPKI:0.00
PC:2d8d2     Total:8      MisBP:0   MisRate:0.00%    MPKI:0.00
PC:2ca96     Total:81      MisBP:0   MisRate:0.00%    MPKI:0.00
PC:2d3bc     Total:38      MisBP:0   MisRate:0.00%    MPKI:0.00
PC:2d7da     Total:4      MisBP:0   MisRate:0.00%    MPKI:0.00
PC:2ca98     Total:81      MisBP:0   MisRate:0.00%    MPKI:0.00
PC:2d4c8     Total:7      MisBP:0   MisRate:0.00%    MPKI:0.00
PC:15216     Total:7698241      MisBP:0   MisRate:0.00%    MPKI:0.00
PC:2efac     Total:344      MisBP:0   MisRate:0.00%    MPKI:0.00
PC:14826     Total:372      MisBP:0   MisRate:0.00%    MPKI:0.00
PC:150d0     Total:56670      MisBP:0   MisRate:0.00%    MPKI:0.00
PC:15652     Total:158      MisBP:0   MisRate:0.00%    MPKI:0.00
PC:1510a     Total:307829      MisBP:0   MisRate:0.00%    MPKI:0.00
PC:15684     Total:157      MisBP:0   MisRate:0.00%    MPKI:0.00
PC:15218     Total:7527924      MisBP:0   MisRate:0.00%    MPKI:0.00
PC:2d930     Total:1      MisBP:0   MisRate:0.00%    MPKI:0.00
PC:2cf62     Total:4      MisBP:0   MisRate:0.00%    MPKI:0.00
PC:11572     Total:73      MisBP:0   MisRate:0.00%    MPKI:0.00
PC:4aa12     Total:13      MisBP:0   MisRate:0.00%    MPKI:0.00
PC:30e56     Total:54      MisBP:0   MisRate:0.00%    MPKI:0.00
PC:2c4ae     Total:2      MisBP:0   MisRate:0.00%    MPKI:0.00
PC:15152     Total:318963      MisBP:0   MisRate:0.00%    MPKI:0.00
PC:1520e     Total:13223614      MisBP:0   MisRate:0.00%    MPKI:0.00
PC:2cf58     Total:4      MisBP:0   MisRate:0.00%    MPKI:0.00
PC:14870     Total:349      MisBP:0   MisRate:0.00%    MPKI:0.00
PC:11568     Total:80      MisBP:0   MisRate:0.00%    MPKI:0.00
PC:2ca92     Total:81      MisBP:0   MisRate:0.00%    MPKI:0.00
PC:1558c     Total:179      MisBP:0   MisRate:0.00%    MPKI:0.00
PC:2d734     Total:10      MisBP:0   MisRate:0.00%    MPKI:0.00
PC:4a9e6     Total:25      MisBP:0   MisRate:0.00%    MPKI:0.00
PC:2d4c0     Total:38      MisBP:0   MisRate:0.00%    MPKI:0.00
PC:2d5f8     Total:14      MisBP:0   MisRate:0.00%    MPKI:0.00
PC:1489c     Total:372      MisBP:0   MisRate:0.00%    MPKI:0.00
PC:15482     Total:67      MisBP:0   MisRate:0.00%    MPKI:0.00
PC:2d718     Total:59      MisBP:0   MisRate:0.00%    MPKI:0.00
PC:30e94     Total:44      MisBP:1   MisRate:2.27%    MPKI:0.00
PC:15602     Total:4      MisBP:1   MisRate:25.00%    MPKI:0.00
PC:2d9a8     Total:8      MisBP:1   MisRate:12.50%    MPKI:0.00
PC:2f44a     Total:485      MisBP:1   MisRate:0.21%    MPKI:0.00
PC:2ca54     Total:18      MisBP:1   MisRate:5.56%    MPKI:0.00
PC:2cf4a     Total:84      MisBP:1   MisRate:1.19%    MPKI:0.00
PC:11d84     Total:1493      MisBP:2   MisRate:0.13%    MPKI:0.00
PC:26e90     Total:44      MisBP:2   MisRate:4.55%    MPKI:0.00
PC:2d9f8     Total:63      MisBP:2   MisRate:3.17%    MPKI:0.00
PC:2d47e     Total:7      MisBP:2   MisRate:28.57%    MPKI:0.00
PC:15452     Total:63      MisBP:2   MisRate:3.17%    MPKI:0.00
PC:2d3c6     Total:38      MisBP:2   MisRate:5.26%    MPKI:0.00
PC:154c4     Total:58      MisBP:2   MisRate:3.45%    MPKI:0.00
PC:1098e     Total:11      MisBP:2   MisRate:18.18%    MPKI:0.00
PC:2cabc     Total:32      MisBP:2   MisRate:6.25%    MPKI:0.00
PC:15528     Total:93      MisBP:2   MisRate:2.15%    MPKI:0.00
PC:2d8e8     Total:8      MisBP:2   MisRate:25.00%    MPKI:0.00
PC:1536e     Total:4965      MisBP:3   MisRate:0.06%    MPKI:0.00
PC:155dc     Total:16      MisBP:3   MisRate:18.75%    MPKI:0.00
PC:15630     Total:241      MisBP:3   MisRate:1.24%    MPKI:0.00
PC:2c9e8     Total:75      MisBP:3   MisRate:4.00%    MPKI:0.00
PC:2d60a     Total:13      MisBP:3   MisRate:23.08%    MPKI:0.00
PC:2d71e     Total:59      MisBP:3   MisRate:5.08%    MPKI:0.00
PC:1541a     Total:86      MisBP:4   MisRate:4.65%    MPKI:0.00
PC:2c8ba     Total:179      MisBP:4   MisRate:2.23%    MPKI:0.00
PC:2d766     Total:61      MisBP:4   MisRate:6.56%    MPKI:0.00
PC:2d7d0     Total:8      MisBP:4   MisRate:50.00%    MPKI:0.00
PC:152b6     Total:466551      MisBP:4   MisRate:0.00%    MPKI:0.00
PC:2d758     Total:12      MisBP:5   MisRate:41.67%    MPKI:0.00
PC:2d8f8     Total:13      MisBP:5   MisRate:38.46%    MPKI:0.00
PC:11d74     Total:114      MisBP:5   MisRate:4.39%    MPKI:0.00
PC:2d492     Total:106      MisBP:5   MisRate:4.72%    MPKI:0.00
PC:2d724     Total:58      MisBP:5   MisRate:8.62%    MPKI:0.00
PC:2d596     Total:87      MisBP:5   MisRate:5.75%    MPKI:0.00
PC:2cdd4     Total:9      MisBP:5   MisRate:55.56%    MPKI:0.00
PC:2da5c     Total:21      MisBP:6   MisRate:28.57%    MPKI:0.00
PC:2d7ca     Total:36      MisBP:6   MisRate:16.67%    MPKI:0.00
PC:2d4ac     Total:39      MisBP:6   MisRate:15.38%    MPKI:0.00
PC:2d5be     Total:81      MisBP:6   MisRate:7.41%    MPKI:0.00
PC:15518     Total:124      MisBP:7   MisRate:5.65%    MPKI:0.00
PC:2d4c4     Total:38      MisBP:7   MisRate:18.42%    MPKI:0.00
PC:2d9e2     Total:57      MisBP:7   MisRate:12.28%    MPKI:0.00
PC:1548a     Total:66      MisBP:7   MisRate:10.61%    MPKI:0.00
PC:2ca6c     Total:17      MisBP:7   MisRate:41.18%    MPKI:0.00
PC:15570     Total:370      MisBP:9   MisRate:2.43%    MPKI:0.00
PC:2c9ba     Total:132      MisBP:9   MisRate:6.82%    MPKI:0.00
PC:154e4     Total:129      MisBP:9   MisRate:6.98%    MPKI:0.00
PC:155a2     Total:97      MisBP:9   MisRate:9.28%    MPKI:0.00
PC:15550     Total:95      MisBP:10   MisRate:10.53%    MPKI:0.00
PC:2cd54     Total:73      MisBP:11   MisRate:15.07%    MPKI:0.00
PC:2d76c     Total:70      MisBP:11   MisRate:15.71%    MPKI:0.00
PC:1547a     Total:136      MisBP:11   MisRate:8.09%    MPKI:0.00
PC:26e52     Total:51      MisBP:11   MisRate:21.57%    MPKI:0.00
PC:15442     Total:123      MisBP:12   MisRate:9.76%    MPKI:0.00
PC:10984     Total:173      MisBP:12   MisRate:6.94%    MPKI:0.00
PC:1540a     Total:132      MisBP:15   MisRate:11.36%    MPKI:0.00
PC:2da2e     Total:60      MisBP:16   MisRate:26.67%    MPKI:0.00
PC:2ca44     Total:67      MisBP:16   MisRate:23.88%    MPKI:0.00
PC:154b4     Total:123      MisBP:16   MisRate:13.01%    MPKI:0.00
PC:153d4     Total:217      MisBP:17   MisRate:7.83%    MPKI:0.00
PC:156b8     Total:183      MisBP:18   MisRate:9.84%    MPKI:0.00
PC:10932     Total:149      MisBP:18   MisRate:12.08%    MPKI:0.00
PC:30e40     Total:87      MisBP:19   MisRate:21.84%    MPKI:0.00
PC:26e46     Total:30      MisBP:20   MisRate:66.67%    MPKI:0.00
PC:15588     Total:192      MisBP:20   MisRate:10.42%    MPKI:0.00
PC:153e4     Total:177      MisBP:21   MisRate:11.86%    MPKI:0.00
PC:2da3e     Total:74      MisBP:22   MisRate:29.73%    MPKI:0.00
PC:2caa2     Total:81      MisBP:26   MisRate:32.10%    MPKI:0.00
PC:2d9ee     Total:587      MisBP:26   MisRate:4.43%    MPKI:0.00
PC:2c998     Total:136      MisBP:26   MisRate:19.12%    MPKI:0.00
PC:2d58e     Total:199      MisBP:29   MisRate:14.57%    MPKI:0.00
PC:109c8     Total:142      MisBP:31   MisRate:21.83%    MPKI:0.00
PC:2d618     Total:80      MisBP:32   MisRate:40.00%    MPKI:0.00
PC:15580     Total:291      MisBP:36   MisRate:12.37%    MPKI:0.00
PC:1099a     Total:206      MisBP:36   MisRate:17.48%    MPKI:0.00
PC:10f62     Total:212      MisBP:39   MisRate:18.40%    MPKI:0.00
PC:2d628     Total:725      MisBP:43   MisRate:5.93%    MPKI:0.00
PC:156b4     Total:217      MisBP:46   MisRate:21.20%    MPKI:0.00
PC:2d560     Total:258      MisBP:54   MisRate:20.93%    MPKI:0.00
PC:156b2     Total:314      MisBP:57   MisRate:18.15%    MPKI:0.00
PC:11dd0     Total:824      MisBP:65   MisRate:7.89%    MPKI:0.00
PC:15642     Total:237      MisBP:70   MisRate:29.54%    MPKI:0.00
PC:1164a     Total:25415      MisBP:82   MisRate:0.32%    MPKI:0.00
PC:11702     Total:7381      MisBP:89   MisRate:1.21%    MPKI:0.00
PC:15354     Total:66086      MisBP:97   MisRate:0.15%    MPKI:0.00
PC:15156     Total:318962      MisBP:116   MisRate:0.04%    MPKI:0.00
PC:15352     Total:66773      MisBP:127   MisRate:0.19%    MPKI:0.00
PC:116d6     Total:12921      MisBP:173   MisRate:1.34%    MPKI:0.00
PC:115b4     Total:11664      MisBP:207   MisRate:1.77%    MPKI:0.00
PC:116b4     Total:18942      MisBP:215   MisRate:1.14%    MPKI:0.00
PC:1159c     Total:12108      MisBP:215   MisRate:1.78%    MPKI:0.00
PC:1170e     Total:7148      MisBP:227   MisRate:3.18%    MPKI:0.00
PC:1171a     Total:5251      MisBP:230   MisRate:4.38%    MPKI:0.00
PC:11592     Total:23652      MisBP:253   MisRate:1.07%    MPKI:0.00
PC:116ec     Total:12383      MisBP:284   MisRate:2.29%    MPKI:0.00
PC:1173a     Total:11275      MisBP:315   MisRate:2.79%    MPKI:0.00
PC:11762     Total:16163      MisBP:344   MisRate:2.13%    MPKI:0.00
PC:115ac     Total:21184      MisBP:408   MisRate:1.93%    MPKI:0.00
PC:151c8     Total:674200      MisBP:425   MisRate:0.06%    MPKI:0.00
PC:15190     Total:1648813      MisBP:633   MisRate:0.04%    MPKI:0.00
PC:15264     Total:715073      MisBP:679   MisRate:0.09%    MPKI:0.00
PC:11618     Total:18356      MisBP:729   MisRate:3.97%    MPKI:0.00
PC:15298     Total:5412197      MisBP:1900   MisRate:0.04%    MPKI:0.01
PC:11684     Total:16701      MisBP:2267   MisRate:13.57%    MPKI:0.01
PC:15236     Total:3094222      MisBP:2785   MisRate:0.09%    MPKI:0.01
PC:1160a     Total:22107      MisBP:3629   MisRate:16.42%    MPKI:0.01
PC:151fe     Total:786099      MisBP:3770   MisRate:0.48%    MPKI:0.01
PC:11632     Total:26410      MisBP:5571   MisRate:21.09%    MPKI:0.02
PC:115ec     Total:32992      MisBP:8095   MisRate:24.54%    MPKI:0.03
PC:15358     Total:62876      MisBP:12596   MisRate:20.03%    MPKI:0.04
PC:152ae     Total:15681460      MisBP:63683   MisRate:0.41%    MPKI:0.21
PC:1524a     Total:5558513      MisBP:572219   MisRate:10.29%    MPKI:1.85
PC:1513c     Total:5099354      MisBP:582193   MisRate:11.42%    MPKI:1.88
PC:15108     Total:4434670      MisBP:667590   MisRate:15.05%    MPKI:2.15
PC:151ae     Total:5231954      MisBP:689606   MisRate:13.18%    MPKI:2.22
PC:151e4     Total:4938236      MisBP:794495   MisRate:16.09%    MPKI:2.56
PC:1521c     Total:7525491      MisBP:1007663   MisRate:13.39%    MPKI:3.25
PC:15176     Total:5858283      MisBP:1277156   MisRate:21.80%    MPKI:4.12
PC:150fc     Total:13073235      MisBP:1341977   MisRate:10.27%    MPKI:4.33
PC:1527e     Total:10149001      MisBP:1351158   MisRate:13.31%    MPKI:4.36
PC:151dc     Total:12541330      MisBP:1500949   MisRate:11.97%    MPKI:4.84
PC:15276     Total:15685479      MisBP:1616900   MisRate:10.31%    MPKI:5.22
PC:15214     Total:13218559      MisBP:1628648   MisRate:12.32%    MPKI:5.25
PC:151a6     Total:12541952      MisBP:1673662   MisRate:13.34%    MPKI:5.40
PC:1516a     Total:12458295      MisBP:1730008   MisRate:13.89%    MPKI:5.58
PC:15130     Total:12705851      MisBP:1769844   MisRate:13.93%    MPKI:5.71
PC:15242     Total:14165249      MisBP:2262337   MisRate:15.97%    MPKI:7.30
Totfetch:1072333635  TotInsts:310000000  TotMis : inf%   MPKI : 66.38
=============finish sim!!!!!!=============
Done running SimPoint!
