Global frequency set at 1000000000000 ticks per second
 Register [printBranch()] ExitCallback !!!!!!! 
gem5 Simulator System.  https://www.gem5.org
gem5 is copyrighted software; use the --copyright option for details.

gem5 version 22.0.0.2
gem5 compiled Sep  7 2022 00:42:18
gem5 started Sep  7 2022 01:58:53
gem5 executing on a100, pid 2727634
command line: /data/zxf/gem5/gem5-prof/build/ARM/gem5.fast --outdir=/data/zxf/checkpoint/spec2006/471.omnetpp/prof/omnetpp_ckp_3 /data/zxf/gem5/gem5-prof/configs/example/se.py --cpu-type O3CPU --cpu-clock 1GHz --num-cpu 1 --l1d-hwp-type=BOPPrefetcher --caches --l2cache --l1i_size 32kB --l1d_size 32kB --l2_size 1MB --l1i_assoc 8 --l1d_assoc 8 --l2_assoc 16 --cacheline_size 64 --mem-type DDR3_2133_8x8 --mem-size 16GB --restore-simpoint-checkpoint -r 3 --checkpoint-dir /data/zxf/checkpoint/spec2006/471.omnetpp/ckpt -c omnetpp_base.gcc41-64bit -o omnetpp.ini

info: Standard input is not a terminal, disabling listeners.
Resuming from /data/zxf/checkpoint/spec2006/471.omnetpp/ckpt/cpt.simpoint_02_inst_30590000000_weight_0.020993_interval_300000000_warmup_10000000
Resuming from SimPoint #2, start_inst:30590000000, weight:0.020993, interval:300000000, warmup:10000000
Switch at curTick count:10000
Switched CPUS @ tick 17236767473000
[(<m5.objects.ArmCPU.ArmAtomicSimpleCPU object at 0x7ff5c15c9940>, <m5.objects.ArmCPU.ArmO3CPU object at 0x7ff5c15e1dc0>)]
switching cpus



+++++++++++++++++++++++++zxf print simpoint+++++++++++++++++++++++++++
largeNet.llanC[0].host[8].cli registering DSAP 240
largeNet.llanC[0].host[9].cli registering DSAP 240
largeNet.llanC[0].host[10].cli registering DSAP 240
largeNet.llanC[0].host[11].cli registering DSAP 240
largeNet.llanC[0].hhost[0].cli registering DSAP 240
largeNet.llanC[0].hhost[1].cli registering DSAP 240
largeNet.llanC[0].hhost[2].cli registering DSAP 240
Warmed up! Dumping and resetting stats!


=============start sim!!!!!!=============
largeNet.llanC[0].hhost[3].cli registering DSAP 240
largeNet.llanC[0].hhost[4].cli registering DSAP 240
largeNet.llanC[0].bhost[0].cli registering DSAP 240
largeNet.llanC[0].bhost[1].cli registering DSAP 240
largeNet.llanC[0].bhost[2].cli registering DSAP 240
largeNet.llanC[0].bhost[3].cli registering DSAP 240
largeNet.llanC[0].bhost[4].cli registering DSAP 240
largeNet.llanC[0].bhost[5].cli registering DSAP 240
largeNet.llanC[0].bhost[6].cli registering DSAP 240
largeNet.llanC[1].host[0].cli registering DSAP 240
largeNet.llanC[1].host[1].cli registering DSAP 240
largeNet.llanC[1].host[2].cli registering DSAP 240
largeNet.llanC[1].host[3].cli registering DSAP 240
largeNet.llanC[1].host[4].cli registering DSAP 240
largeNet.llanC[1].host[5].cli registering DSAP 240
largeNet.llanC[1].host[6].cli registering DSAP 240
largeNet.llanC[1].host[7].cli registering DSAP 240
largeNet.llanC[1].host[8].cli registering DSAP 240
largeNet.llanC[1].host[9].cli registering DSAP 240
largeNet.llanC[1].host[10].cli registering DSAP 240
largeNet.llanC[1].host[11].cli registering DSAP 240
largeNet.llanC[1].hhost[0].cli registering DSAP 240
largeNet.llanC[1].hhost[1].cli registering DSAP 240
largeNet.llanC[1].hhost[2].cli registering DSAP 240
largeNet.llanC[1].hhost[3].cli registering DSAP 240
largeNet.llanC[1].hhost[4].cli registering DSAP 240
largeNet.llanC[1].bhost[0].cli registering DSAP 240
largeNet.llanC[1].bhost[1].cli registering DSAP 240
largeNet.llanC[1].bhost[2].cli registering DSAP 240
largeNet.llanC[1].bhost[3].cli registering DSAP 240
largeNet.llanC[1].bhost[4].cli registering DSAP 240
largeNet.llanC[1].bhost[5].cli registering DSAP 240
largeNet.llanC[1].bhost[6].cli registering DSAP 240
largeNet.llanC[2].host[0].cli registering DSAP 240
largeNet.llanC[2].host[1].cli registering DSAP 240
largeNet.llanC[2].host[2].cli registering DSAP 240
largeNet.llanC[2].host[3].cli registering DSAP 240
largeNet.llanC[2].host[4].cli registering DSAP 240
largeNet.llanC[2].host[5].cli registering DSAP 240
largeNet.llanC[2].host[6].cli registering DSAP 240
largeNet.llanC[2].host[7].cli registering DSAP 240
largeNet.llanC[2].host[8].cli registering DSAP 240
largeNet.llanC[2].host[9].cli registering DSAP 240
largeNet.llanC[2].host[10].cli registering DSAP 240
largeNet.llanC[2].host[11].cli registering DSAP 240
largeNet.llanC[2].hhost[0].cli registering DSAP 240
largeNet.llanC[2].hhost[1].cli registering DSAP 240
largeNet.llanC[2].hhost[2].cli registering DSAP 240
largeNet.llanC[2].hhost[3].cli registering DSAP 240
largeNet.llanC[2].hhost[4].cli registering DSAP 240
largeNet.llanC[2].bhost[0].cli registering DSAP 240
largeNet.llanC[2].bhost[1].cli registering DSAP 240
largeNet.llanC[2].bhost[2].cli registering DSAP 240
largeNet.llanC[2].bhost[3].cli registering DSAP 240
largeNet.llanC[2].bhost[4].cli registering DSAP 240
largeNet.llanC[2].bhost[5].cli registering DSAP 240
largeNet.llanC[2].bhost[6].cli registering DSAP 240
largeNet.slanD[0].host[0].cli registering DSAP 240
largeNet.slanD[0].host[1].cli registering DSAP 240
largeNet.slanD[0].host[2].cli registering DSAP 240
largeNet.slanD[0].host[3].cli registering DSAP 240
largeNet.slanD[0].host[4].cli registering DSAP 240
largeNet.slanD[1].host[0].cli registering DSAP 240
largeNet.slanD[1].host[1].cli registering DSAP 240
largeNet.slanD[1].host[2].cli registering DSAP 240
largeNet.slanD[1].host[3].cli registering DSAP 240
largeNet.slanD[1].host[4].cli registering DSAP 240
largeNet.slanD[2].host[0].cli registering DSAP 240
largeNet.slanD[2].host[1].cli registering DSAP 240
largeNet.slanD[2].host[2].cli registering DSAP 240
largeNet.slanD[2].host[3].cli registering DSAP 240
largeNet.slanD[2].host[4].cli registering DSAP 240
largeNet.slanD[3].host[0].cli registering DSAP 240
largeNet.slanD[3].host[1].cli registering DSAP 240
largeNet.slanD[3].host[2].cli registering DSAP 240
largeNet.slanD[3].host[3].cli registering DSAP 240
largeNet.slanD[3].host[4].cli registering DSAP 240
largeNet.mlanD[0].host[0].cli registering DSAP 240
largeNet.mlanD[0].host[1].cli registering DSAP 240
largeNet.mlanD[0].host[2].cli registering DSAP 240
largeNet.mlanD[0].host[3].cli registering DSAP 240
largeNet.mlanD[0].host[4].cli registering DSAP 240
largeNet.mlanD[0].host[5].cli registering DSAP 240
largeNet.mlanD[0].host[6].cli registering DSAP 240
largeNet.mlanD[0].host[7].cli registering DSAP 240
largeNet.mlanD[0].host[8].cli registering DSAP 240
largeNet.mlanD[0].host[9].cli registering DSAP 240
largeNet.mlanD[0].host[10].cli registering DSAP 240
largeNet.mlanD[0].host[11].cli registering DSAP 240
largeNet.mlanD[0].hhost[0].cli registering DSAP 240
largeNet.mlanD[0].hhost[1].cli registering DSAP 240
largeNet.mlanD[0].hhost[2].cli registering DSAP 240
largeNet.mlanD[0].hhost[3].cli registering DSAP 240
largeNet.mlanD[0].hhost[4].cli registering DSAP 240
largeNet.mlanD[1].host[0].cli registering DSAP 240
largeNet.mlanD[1].host[1].cli registering DSAP 240
largeNet.mlanD[1].host[2].cli registering DSAP 240
largeNet.mlanD[1].host[3].cli registering DSAP 240
largeNet.mlanD[1].host[4].cli registering DSAP 240
largeNet.mlanD[1].host[5].cli registering DSAP 240
largeNet.mlanD[1].host[6].cli registering DSAP 240
largeNet.mlanD[1].host[7].cli registering DSAP 240
largeNet.mlanD[1].host[8].cli registering DSAP 240
largeNet.mlanD[1].host[9].cli registering DSAP 240
largeNet.mlanD[1].host[10].cli registering DSAP 240
largeNet.mlanD[1].host[11].cli registering DSAP 240
largeNet.mlanD[1].hhost[0].cli registering DSAP 240
largeNet.mlanD[1].hhost[1].cli registering DSAP 240
largeNet.mlanD[1].hhost[2].cli registering DSAP 240
largeNet.mlanD[1].hhost[3].cli registering DSAP 240
largeNet.mlanD[1].hhost[4].cli registering DSAP 240
largeNet.mlanD[2].host[0].cli registering DSAP 240
largeNet.mlanD[2].host[1].cli registering DSAP 240
largeNet.mlanD[2].host[2].cli registering DSAP 240
largeNet.mlanD[2].host[3].cli registering DSAP 240
largeNet.mlanD[2].host[4].cli registering DSAP 240
largeNet.mlanD[2].host[5].cli registering DSAP 240
largeNet.mlanD[2].host[6].cli registering DSAP 240
largeNet.mlanD[2].host[7].cli registering DSAP 240
largeNet.mlanD[2].host[8].cli registering DSAP 240
largeNet.mlanD[2].host[9].cli registering DSAP 240
largeNet.mlanD[2].host[10].cli registering DSAP 240
largeNet.mlanD[2].host[11].cli registering DSAP 240
largeNet.mlanD[2].hhost[0].cli registering DSAP 240
largeNet.mlanD[2].hhost[1].cli registering DSAP 240
largeNet.mlanD[2].hhost[2].cli registering DSAP 240
largeNet.mlanD[2].hhost[3].cli registering DSAP 240
largeNet.mlanD[2].hhost[4].cli registering DSAP 240
largeNet.mlanD[3].host[0].cli registering DSAP 240
largeNet.mlanD[3].host[1].cli registering DSAP 240
largeNet.mlanD[3].host[2].cli registering DSAP 240
largeNet.mlanD[3].host[3].cli registering DSAP 240
largeNet.mlanD[3].host[4].cli registering DSAP 240
largeNet.mlanD[3].host[5].cli registering DSAP 240
largeNet.mlanD[3].host[6].cli registering DSAP 240
largeNet.mlanD[3].host[7].cli registering DSAP 240
largeNet.mlanD[3].host[8].cli registering DSAP 240
largeNet.mlanD[3].host[9].cli registering DSAP 240
largeNet.mlanD[3].host[10].cli registering DSAP 240
largeNet.mlanD[3].host[11].cli registering DSAP 240
largeNet.mlanD[3].hhost[0].cli registering DSAP 240
largeNet.mlanD[3].hhost[1].cli registering DSAP 240
largeNet.mlanD[3].hhost[2].cli registering DSAP 240
largeNet.mlanD[3].hhost[3].cli registering DSAP 240
largeNet.mlanD[3].hhost[4].cli registering DSAP 240
largeNet.mlanD[4].host[0].cli registering DSAP 240
largeNet.mlanD[4].host[1].cli registering DSAP 240
largeNet.mlanD[4].host[2].cli registering DSAP 240
largeNet.mlanD[4].host[3].cli registering DSAP 240
largeNet.mlanD[4].host[4].cli registering DSAP 240
largeNet.mlanD[4].host[5].cli registering DSAP 240
largeNet.mlanD[4].host[6].cli registering DSAP 240
largeNet.mlanD[4].host[7].cli registering DSAP 240
largeNet.mlanD[4].host[8].cli registering DSAP 240
largeNet.mlanD[4].host[9].cli registering DSAP 240
largeNet.mlanD[4].host[10].cli registering DSAP 240
largeNet.mlanD[4].host[11].cli registering DSAP 240
largeNet.mlanD[4].hhost[0].cli registering DSAP 240
largeNet.mlanD[4].hhost[1].cli registering DSAP 240
largeNet.mlanD[4].hhost[2].cli registering DSAP 240
largeNet.mlanD[4].hhost[3].cli registering DSAP 240
largeNet.mlanD[4].hhost[4].cli registering DSAP 240
largeNet.mlanD[5].host[0].cli registering DSAP 240
largeNet.mlanD[5].host[1].cli registering DSAP 240
largeNet.mlanD[5].host[2].cli registering DSAP 240
largeNet.mlanD[5].host[3].cli registering DSAP 240
largeNet.mlanD[5].host[4].cli registering DSAP 240
largeNet.mlanD[5].host[5].cli registering DSAP 240
largeNet.mlanD[5].host[6].cli registering DSAP 240
largeNet.mlanD[5].host[7].cli registering DSAP 240
largeNet.mlanD[5].host[8].cli registering DSAP 240
largeNet.mlanD[5].host[9].cli registering DSAP 240
largeNet.mlanD[5].host[10].cli registering DSAP 240
largeNet.mlanD[5].host[11].cli registering DSAP 240
largeNet.mlanD[5].hhost[0].cli registering DSAP 240
largeNet.mlanD[5].hhost[1].cli registering DSAP 240
largeNet.mlanD[5].hhost[2].cli registering DSAP 240
largeNet.mlanD[5].hhost[3].cli registering DSAP 240
largeNet.mlanD[5].hhost[4].cli registering DSAP 240
largeNet.mlanD[6].host[0].cli registering DSAP 240
largeNet.mlanD[6].host[1].cli registering DSAP 240
largeNet.mlanD[6].host[2].cli registering DSAP 240
largeNet.mlanD[6].host[3].cli registering DSAP 240
largeNet.mlanD[6].host[4].cli registering DSAP 240
largeNet.mlanD[6].host[5].cli registering DSAP 240
largeNet.mlanD[6].host[6].cli registering DSAP 240
largeNet.mlanD[6].host[7].cli registering DSAP 240
largeNet.mlanD[6].host[8].cli registering DSAP 240
largeNet.mlanD[6].host[9].cli registering DSAP 240
largeNet.mlanD[6].host[10].cli registering DSAP 240
largeNet.mlanD[6].host[11].cli registering DSAP 240
largeNet.mlanD[6].hhost[0].cli registering DSAP 240
largeNet.mlanD[6].hhost[1].cli registering DSAP 240
largeNet.mlanD[6].hhost[2].cli registering DSAP 240
largeNet.mlanD[6].hhost[3].cli registering DSAP 240
largeNet.mlanD[6].hhost[4].cli registering DSAP 240
largeNet.mlanD[7].host[0].cli registering DSAP 240
PC:3df6a     Total:6      MisBP:0   MisRate:0.00%    MPKI:0.00
PC:3df74     Total:6      MisBP:0   MisRate:0.00%    MPKI:0.00
PC:d4730     Total:13      MisBP:0   MisRate:0.00%    MPKI:0.00
PC:bb5e6     Total:2      MisBP:0   MisRate:0.00%    MPKI:0.00
PC:3df72     Total:6      MisBP:0   MisRate:0.00%    MPKI:0.00
PC:bb5e4     Total:2      MisBP:0   MisRate:0.00%    MPKI:0.00
PC:3df70     Total:6      MisBP:0   MisRate:0.00%    MPKI:0.00
PC:d472c     Total:13      MisBP:0   MisRate:0.00%    MPKI:0.00
PC:bb5e2     Total:2      MisBP:0   MisRate:0.00%    MPKI:0.00
PC:3df6e     Total:6      MisBP:0   MisRate:0.00%    MPKI:0.00
PC:bb5e0     Total:2      MisBP:0   MisRate:0.00%    MPKI:0.00
PC:3df6c     Total:6      MisBP:0   MisRate:0.00%    MPKI:0.00
PC:d4728     Total:13      MisBP:0   MisRate:0.00%    MPKI:0.00
PC:bb5de     Total:2      MisBP:0   MisRate:0.00%    MPKI:0.00
PC:bb5e8     Total:2      MisBP:0   MisRate:0.00%    MPKI:0.00
PC:d4726     Total:13      MisBP:0   MisRate:0.00%    MPKI:0.00
PC:bb5dc     Total:2      MisBP:0   MisRate:0.00%    MPKI:0.00
PC:3df66     Total:12      MisBP:0   MisRate:0.00%    MPKI:0.00
PC:bb5d8     Total:2      MisBP:0   MisRate:0.00%    MPKI:0.00
PC:3df64     Total:6      MisBP:0   MisRate:0.00%    MPKI:0.00
PC:d4720     Total:13      MisBP:0   MisRate:0.00%    MPKI:0.00
PC:bb5d6     Total:2      MisBP:0   MisRate:0.00%    MPKI:0.00
PC:3df62     Total:6      MisBP:0   MisRate:0.00%    MPKI:0.00
PC:bb5d4     Total:2      MisBP:0   MisRate:0.00%    MPKI:0.00
PC:3df60     Total:6      MisBP:0   MisRate:0.00%    MPKI:0.00
PC:d471c     Total:13      MisBP:0   MisRate:0.00%    MPKI:0.00
PC:3df5e     Total:12      MisBP:0   MisRate:0.00%    MPKI:0.00
PC:d471a     Total:13      MisBP:0   MisRate:0.00%    MPKI:0.00
PC:3df80     Total:5      MisBP:0   MisRate:0.00%    MPKI:0.00
PC:c4794     Total:9      MisBP:0   MisRate:0.00%    MPKI:0.00
PC:ba710     Total:1555      MisBP:0   MisRate:0.00%    MPKI:0.00
PC:420e0     Total:794      MisBP:0   MisRate:0.00%    MPKI:0.00
PC:e2920     Total:8      MisBP:0   MisRate:0.00%    MPKI:0.00
PC:3df8e     Total:3      MisBP:0   MisRate:0.00%    MPKI:0.00
PC:d474a     Total:1638      MisBP:0   MisRate:0.00%    MPKI:0.00
PC:3df8a     Total:3      MisBP:0   MisRate:0.00%    MPKI:0.00
PC:d4746     Total:12      MisBP:0   MisRate:0.00%    MPKI:0.00
PC:3df86     Total:3      MisBP:0   MisRate:0.00%    MPKI:0.00
PC:bb5f8     Total:6      MisBP:0   MisRate:0.00%    MPKI:0.00
PC:3df82     Total:5      MisBP:0   MisRate:0.00%    MPKI:0.00
PC:d473e     Total:12      MisBP:0   MisRate:0.00%    MPKI:0.00
PC:bb5f4     Total:6      MisBP:0   MisRate:0.00%    MPKI:0.00
PC:bb5d0     Total:2      MisBP:0   MisRate:0.00%    MPKI:0.00
PC:d473c     Total:12      MisBP:0   MisRate:0.00%    MPKI:0.00
PC:3df7e     Total:5      MisBP:0   MisRate:0.00%    MPKI:0.00
PC:bb5f0     Total:2      MisBP:0   MisRate:0.00%    MPKI:0.00
PC:3df7c     Total:15      MisBP:0   MisRate:0.00%    MPKI:0.00
PC:d4738     Total:12      MisBP:0   MisRate:0.00%    MPKI:0.00
PC:3df7a     Total:5      MisBP:0   MisRate:0.00%    MPKI:0.00
PC:bb5ec     Total:2      MisBP:0   MisRate:0.00%    MPKI:0.00
PC:3df78     Total:5      MisBP:0   MisRate:0.00%    MPKI:0.00
PC:d4734     Total:12      MisBP:0   MisRate:0.00%    MPKI:0.00
PC:bb5ea     Total:2      MisBP:0   MisRate:0.00%    MPKI:0.00
PC:3df76     Total:5      MisBP:0   MisRate:0.00%    MPKI:0.00
PC:d4732     Total:12      MisBP:0   MisRate:0.00%    MPKI:0.00
PC:d46f4     Total:1836      MisBP:0   MisRate:0.00%    MPKI:0.00
PC:d4700     Total:1464      MisBP:0   MisRate:0.00%    MPKI:0.00
PC:bb5b6     Total:19      MisBP:0   MisRate:0.00%    MPKI:0.00
PC:3df42     Total:28      MisBP:0   MisRate:0.00%    MPKI:0.00
PC:bb5b4     Total:19      MisBP:0   MisRate:0.00%    MPKI:0.00
PC:3df40     Total:28      MisBP:0   MisRate:0.00%    MPKI:0.00
PC:3df3e     Total:28      MisBP:0   MisRate:0.00%    MPKI:0.00
PC:d46fa     Total:1835      MisBP:0   MisRate:0.00%    MPKI:0.00
PC:3df3c     Total:28      MisBP:0   MisRate:0.00%    MPKI:0.00
PC:bb5ae     Total:19      MisBP:0   MisRate:0.00%    MPKI:0.00
PC:d46f8     Total:1835      MisBP:0   MisRate:0.00%    MPKI:0.00
PC:3df3a     Total:28      MisBP:0   MisRate:0.00%    MPKI:0.00
PC:bb5ac     Total:19      MisBP:0   MisRate:0.00%    MPKI:0.00
PC:3df38     Total:30      MisBP:0   MisRate:0.00%    MPKI:0.00
PC:3df44     Total:28      MisBP:0   MisRate:0.00%    MPKI:0.00
PC:3df36     Total:30      MisBP:0   MisRate:0.00%    MPKI:0.00
PC:3df34     Total:30      MisBP:0   MisRate:0.00%    MPKI:0.00
PC:d46f0     Total:1836      MisBP:0   MisRate:0.00%    MPKI:0.00
PC:bb5a6     Total:4193      MisBP:0   MisRate:0.00%    MPKI:0.00
PC:3df32     Total:30      MisBP:0   MisRate:0.00%    MPKI:0.00
PC:3df2e     Total:30      MisBP:0   MisRate:0.00%    MPKI:0.00
PC:bb5a0     Total:4194      MisBP:0   MisRate:0.00%    MPKI:0.00
PC:d46ea     Total:1753      MisBP:0   MisRate:0.00%    MPKI:0.00
PC:bf1b8     Total:7      MisBP:0   MisRate:0.00%    MPKI:0.00
PC:46b88     Total:2      MisBP:0   MisRate:0.00%    MPKI:0.00
PC:3df20     Total:233      MisBP:0   MisRate:0.00%    MPKI:0.00
PC:bf1b4     Total:221      MisBP:0   MisRate:0.00%    MPKI:0.00
PC:3b5fa     Total:333      MisBP:0   MisRate:0.00%    MPKI:0.00
PC:d470e     Total:7      MisBP:0   MisRate:0.00%    MPKI:0.00
PC:3df5c     Total:7      MisBP:0   MisRate:0.00%    MPKI:0.00
PC:d4718     Total:7      MisBP:0   MisRate:0.00%    MPKI:0.00
PC:bb5ce     Total:2      MisBP:0   MisRate:0.00%    MPKI:0.00
PC:3df5a     Total:7      MisBP:0   MisRate:0.00%    MPKI:0.00
PC:d4716     Total:7      MisBP:0   MisRate:0.00%    MPKI:0.00
PC:bb5cc     Total:2      MisBP:0   MisRate:0.00%    MPKI:0.00
PC:3df56     Total:15      MisBP:0   MisRate:0.00%    MPKI:0.00
PC:d4712     Total:7      MisBP:0   MisRate:0.00%    MPKI:0.00
PC:bb5c8     Total:2      MisBP:0   MisRate:0.00%    MPKI:0.00
PC:3df54     Total:8      MisBP:0   MisRate:0.00%    MPKI:0.00
PC:d4710     Total:7      MisBP:0   MisRate:0.00%    MPKI:0.00
PC:bb5c6     Total:2      MisBP:0   MisRate:0.00%    MPKI:0.00
PC:3df52     Total:8      MisBP:0   MisRate:0.00%    MPKI:0.00
PC:e2922     Total:8      MisBP:0   MisRate:0.00%    MPKI:0.00
PC:3df50     Total:8      MisBP:0   MisRate:0.00%    MPKI:0.00
PC:bb5c2     Total:2      MisBP:0   MisRate:0.00%    MPKI:0.00
PC:3df4e     Total:36      MisBP:0   MisRate:0.00%    MPKI:0.00
PC:d470a     Total:7      MisBP:0   MisRate:0.00%    MPKI:0.00
PC:bb5c0     Total:2      MisBP:0   MisRate:0.00%    MPKI:0.00
PC:3df4c     Total:28      MisBP:0   MisRate:0.00%    MPKI:0.00
PC:d4708     Total:7      MisBP:0   MisRate:0.00%    MPKI:0.00
PC:3df4a     Total:28      MisBP:0   MisRate:0.00%    MPKI:0.00
PC:d4706     Total:7      MisBP:0   MisRate:0.00%    MPKI:0.00
PC:3df48     Total:28      MisBP:0   MisRate:0.00%    MPKI:0.00
PC:bb5ba     Total:7      MisBP:0   MisRate:0.00%    MPKI:0.00
PC:3df46     Total:28      MisBP:0   MisRate:0.00%    MPKI:0.00
PC:4bb28     Total:904      MisBP:0   MisRate:0.00%    MPKI:0.00
PC:4743e     Total:17      MisBP:0   MisRate:0.00%    MPKI:0.00
PC:d3b76     Total:2458      MisBP:0   MisRate:0.00%    MPKI:0.00
PC:3ccc4     Total:235      MisBP:0   MisRate:0.00%    MPKI:0.00
PC:ba336     Total:1      MisBP:0   MisRate:0.00%    MPKI:0.00
PC:3ccc0     Total:235      MisBP:0   MisRate:0.00%    MPKI:0.00
PC:ba332     Total:1      MisBP:0   MisRate:0.00%    MPKI:0.00
PC:3ccbc     Total:393      MisBP:0   MisRate:0.00%    MPKI:0.00
PC:ba32e     Total:1      MisBP:0   MisRate:0.00%    MPKI:0.00
PC:3ccba     Total:393      MisBP:0   MisRate:0.00%    MPKI:0.00
PC:ba32c     Total:1      MisBP:0   MisRate:0.00%    MPKI:0.00
PC:4bb2a     Total:4759      MisBP:0   MisRate:0.00%    MPKI:0.00
PC:3ccb6     Total:89      MisBP:0   MisRate:0.00%    MPKI:0.00
PC:ba328     Total:1      MisBP:0   MisRate:0.00%    MPKI:0.00
PC:10168     Total:121      MisBP:0   MisRate:0.00%    MPKI:0.00
PC:3ccb4     Total:89      MisBP:0   MisRate:0.00%    MPKI:0.00
PC:ba326     Total:1      MisBP:0   MisRate:0.00%    MPKI:0.00
PC:ba324     Total:2      MisBP:0   MisRate:0.00%    MPKI:0.00
PC:4bb24     Total:904      MisBP:0   MisRate:0.00%    MPKI:0.00
PC:3ccb0     Total:478      MisBP:0   MisRate:0.00%    MPKI:0.00
PC:ba322     Total:2      MisBP:0   MisRate:0.00%    MPKI:0.00
PC:3cca8     Total:209      MisBP:0   MisRate:0.00%    MPKI:0.00
PC:ba31a     Total:2      MisBP:0   MisRate:0.00%    MPKI:0.00
PC:3cc98     Total:212      MisBP:0   MisRate:0.00%    MPKI:0.00
PC:ba30a     Total:38      MisBP:0   MisRate:0.00%    MPKI:0.00
PC:3cc90     Total:206      MisBP:0   MisRate:0.00%    MPKI:0.00
PC:ba302     Total:38      MisBP:0   MisRate:0.00%    MPKI:0.00
PC:3cc8e     Total:206      MisBP:0   MisRate:0.00%    MPKI:0.00
PC:1017c     Total:121      MisBP:0   MisRate:0.00%    MPKI:0.00
PC:10188     Total:47      MisBP:0   MisRate:0.00%    MPKI:0.00
PC:d3b96     Total:3303      MisBP:0   MisRate:0.00%    MPKI:0.00
PC:4bb56     Total:3      MisBP:0   MisRate:0.00%    MPKI:0.00
PC:46b14     Total:323      MisBP:0   MisRate:0.00%    MPKI:0.00
PC:4bb54     Total:3      MisBP:0   MisRate:0.00%    MPKI:0.00
PC:46b12     Total:323      MisBP:0   MisRate:0.00%    MPKI:0.00
PC:10184     Total:47      MisBP:0   MisRate:0.00%    MPKI:0.00
PC:4bb50     Total:21      MisBP:0   MisRate:0.00%    MPKI:0.00
PC:46b0e     Total:323      MisBP:0   MisRate:0.00%    MPKI:0.00
PC:10180     Total:47      MisBP:0   MisRate:0.00%    MPKI:0.00
PC:d3b8e     Total:2706      MisBP:0   MisRate:0.00%    MPKI:0.00
PC:4bb4c     Total:959      MisBP:0   MisRate:0.00%    MPKI:0.00
PC:46b0a     Total:323      MisBP:0   MisRate:0.00%    MPKI:0.00
PC:3cc8c     Total:206      MisBP:0   MisRate:0.00%    MPKI:0.00
PC:d3b8a     Total:2791      MisBP:0   MisRate:0.00%    MPKI:0.00
PC:4bb4a     Total:741      MisBP:0   MisRate:0.00%    MPKI:0.00
PC:3ccd6     Total:235      MisBP:0   MisRate:0.00%    MPKI:0.00
PC:4bb46     Total:408      MisBP:0   MisRate:0.00%    MPKI:0.00
PC:4bb44     Total:408      MisBP:0   MisRate:0.00%    MPKI:0.00
PC:46b02     Total:327      MisBP:0   MisRate:0.00%    MPKI:0.00
PC:10174     Total:121      MisBP:0   MisRate:0.00%    MPKI:0.00
PC:d3b82     Total:2791      MisBP:0   MisRate:0.00%    MPKI:0.00
PC:10170     Total:121      MisBP:0   MisRate:0.00%    MPKI:0.00
PC:d3b7e     Total:2791      MisBP:0   MisRate:0.00%    MPKI:0.00
PC:3ccc8     Total:235      MisBP:0   MisRate:0.00%    MPKI:0.00
PC:ba33a     Total:7      MisBP:0   MisRate:0.00%    MPKI:0.00
PC:e2928     Total:8      MisBP:0   MisRate:0.00%    MPKI:0.00
PC:c47a2     Total:5      MisBP:0   MisRate:0.00%    MPKI:0.00
PC:ba71e     Total:1552      MisBP:0   MisRate:0.00%    MPKI:0.00
PC:420ee     Total:792      MisBP:0   MisRate:0.00%    MPKI:0.00
PC:e292e     Total:7      MisBP:0   MisRate:0.00%    MPKI:0.00
PC:c479e     Total:3      MisBP:0   MisRate:0.00%    MPKI:0.00
PC:4712c     Total:366932      MisBP:0   MisRate:0.00%    MPKI:0.00
PC:ba71a     Total:1552      MisBP:0   MisRate:0.00%    MPKI:0.00
PC:420ea     Total:793      MisBP:0   MisRate:0.00%    MPKI:0.00
PC:e292a     Total:8      MisBP:0   MisRate:0.00%    MPKI:0.00
PC:c479c     Total:3      MisBP:0   MisRate:0.00%    MPKI:0.00
PC:4712a     Total:73418      MisBP:0   MisRate:0.00%    MPKI:0.00
PC:ba718     Total:1553      MisBP:0   MisRate:0.00%    MPKI:0.00
PC:420e8     Total:793      MisBP:0   MisRate:0.00%    MPKI:0.00
PC:e2930     Total:7      MisBP:0   MisRate:0.00%    MPKI:0.00
PC:c479a     Total:3      MisBP:0   MisRate:0.00%    MPKI:0.00
PC:47128     Total:73418      MisBP:0   MisRate:0.00%    MPKI:0.00
PC:420e6     Total:793      MisBP:0   MisRate:0.00%    MPKI:0.00
PC:c4798     Total:3      MisBP:0   MisRate:0.00%    MPKI:0.00
PC:47126     Total:73445      MisBP:0   MisRate:0.00%    MPKI:0.00
PC:ba714     Total:1555      MisBP:0   MisRate:0.00%    MPKI:0.00
PC:420e4     Total:793      MisBP:0   MisRate:0.00%    MPKI:0.00
PC:e2924     Total:8      MisBP:0   MisRate:0.00%    MPKI:0.00
PC:c4796     Total:3      MisBP:0   MisRate:0.00%    MPKI:0.00
PC:47124     Total:73456      MisBP:0   MisRate:0.00%    MPKI:0.00
PC:ba712     Total:1555      MisBP:0   MisRate:0.00%    MPKI:0.00
PC:420e2     Total:794      MisBP:0   MisRate:0.00%    MPKI:0.00
PC:420f6     Total:609      MisBP:0   MisRate:0.00%    MPKI:0.00
PC:ba2fe     Total:38      MisBP:0   MisRate:0.00%    MPKI:0.00
PC:4bafa     Total:390      MisBP:0   MisRate:0.00%    MPKI:0.00
PC:3f444     Total:852      MisBP:0   MisRate:0.00%    MPKI:0.00
PC:3cc86     Total:206      MisBP:0   MisRate:0.00%    MPKI:0.00
PC:3f438     Total:860      MisBP:0   MisRate:0.00%    MPKI:0.00
PC:3cc7a     Total:206      MisBP:0   MisRate:0.00%    MPKI:0.00
PC:c47ac     Total:15      MisBP:0   MisRate:0.00%    MPKI:0.00
PC:4713a     Total:73250      MisBP:0   MisRate:0.00%    MPKI:0.00
PC:420f8     Total:609      MisBP:0   MisRate:0.00%    MPKI:0.00
PC:e2938     Total:7      MisBP:0   MisRate:0.00%    MPKI:0.00
PC:c47aa     Total:5      MisBP:0   MisRate:0.00%    MPKI:0.00
PC:47138     Total:73251      MisBP:0   MisRate:0.00%    MPKI:0.00
PC:ba726     Total:1551      MisBP:0   MisRate:0.00%    MPKI:0.00
PC:d4752     Total:46      MisBP:0   MisRate:0.00%    MPKI:0.00
PC:e2936     Total:7      MisBP:0   MisRate:0.00%    MPKI:0.00
PC:c47a8     Total:5      MisBP:0   MisRate:0.00%    MPKI:0.00
PC:47136     Total:73269      MisBP:0   MisRate:0.00%    MPKI:0.00
PC:420f4     Total:661      MisBP:0   MisRate:0.00%    MPKI:0.00
PC:c47a6     Total:5      MisBP:0   MisRate:0.00%    MPKI:0.00
PC:ba722     Total:1551      MisBP:0   MisRate:0.00%    MPKI:0.00
PC:420f2     Total:783      MisBP:0   MisRate:0.00%    MPKI:0.00
PC:e2932     Total:7      MisBP:0   MisRate:0.00%    MPKI:0.00
PC:c47a4     Total:5      MisBP:0   MisRate:0.00%    MPKI:0.00
PC:47132     Total:73262      MisBP:0   MisRate:0.00%    MPKI:0.00
PC:ba720     Total:1551      MisBP:0   MisRate:0.00%    MPKI:0.00
PC:420f0     Total:792      MisBP:0   MisRate:0.00%    MPKI:0.00
PC:2e7a0     Total:1025      MisBP:0   MisRate:0.00%    MPKI:0.00
PC:d41a2     Total:2693      MisBP:0   MisRate:0.00%    MPKI:0.00
PC:bea2c     Total:1927      MisBP:0   MisRate:0.00%    MPKI:0.00
PC:3c378     Total:14      MisBP:0   MisRate:0.00%    MPKI:0.00
PC:2e7a4     Total:205      MisBP:0   MisRate:0.00%    MPKI:0.00
PC:1327a     Total:209      MisBP:0   MisRate:0.00%    MPKI:0.00
PC:bb2ee     Total:207      MisBP:0   MisRate:0.00%    MPKI:0.00
PC:e34fe     Total:1      MisBP:0   MisRate:0.00%    MPKI:0.00
PC:d4438     Total:2      MisBP:0   MisRate:0.00%    MPKI:0.00
PC:b72ee     Total:516      MisBP:0   MisRate:0.00%    MPKI:0.00
PC:2e91c     Total:374      MisBP:0   MisRate:0.00%    MPKI:0.00
PC:d419e     Total:2693      MisBP:0   MisRate:0.00%    MPKI:0.00
PC:bea28     Total:1927      MisBP:0   MisRate:0.00%    MPKI:0.00
PC:3c374     Total:14      MisBP:0   MisRate:0.00%    MPKI:0.00
PC:2e920     Total:8      MisBP:0   MisRate:0.00%    MPKI:0.00
PC:13276     Total:209      MisBP:0   MisRate:0.00%    MPKI:0.00
PC:b72ea     Total:517      MisBP:0   MisRate:0.00%    MPKI:0.00
PC:bea24     Total:1927      MisBP:0   MisRate:0.00%    MPKI:0.00
PC:3c370     Total:14      MisBP:0   MisRate:0.00%    MPKI:0.00
PC:46704     Total:709      MisBP:0   MisRate:0.00%    MPKI:0.00
PC:7f916     Total:206      MisBP:0   MisRate:0.00%    MPKI:0.00
PC:b72e6     Total:516      MisBP:0   MisRate:0.00%    MPKI:0.00
PC:7f912     Total:206      MisBP:0   MisRate:0.00%    MPKI:0.00
PC:b72e2     Total:516      MisBP:0   MisRate:0.00%    MPKI:0.00
PC:bea1c     Total:1391      MisBP:0   MisRate:0.00%    MPKI:0.00
PC:4b42e     Total:259      MisBP:0   MisRate:0.00%    MPKI:0.00
PC:b72de     Total:516      MisBP:0   MisRate:0.00%    MPKI:0.00
PC:bea18     Total:1391      MisBP:0   MisRate:0.00%    MPKI:0.00
PC:13282     Total:567      MisBP:0   MisRate:0.00%    MPKI:0.00
PC:d41ae     Total:12      MisBP:0   MisRate:0.00%    MPKI:0.00
PC:bea38     Total:555      MisBP:0   MisRate:0.00%    MPKI:0.00
PC:4b44a     Total:64      MisBP:0   MisRate:0.00%    MPKI:0.00
PC:3c384     Total:7      MisBP:0   MisRate:0.00%    MPKI:0.00
PC:7f92a     Total:207      MisBP:0   MisRate:0.00%    MPKI:0.00
PC:bbc42     Total:1      MisBP:0   MisRate:0.00%    MPKI:0.00
PC:b72fa     Total:1      MisBP:0   MisRate:0.00%    MPKI:0.00
PC:2e928     Total:8      MisBP:0   MisRate:0.00%    MPKI:0.00
PC:d41aa     Total:13      MisBP:0   MisRate:0.00%    MPKI:0.00
PC:bea34     Total:1120      MisBP:0   MisRate:0.00%    MPKI:0.00
PC:4b446     Total:64      MisBP:0   MisRate:0.00%    MPKI:0.00
PC:3c380     Total:11      MisBP:0   MisRate:0.00%    MPKI:0.00
PC:2e7ac     Total:206      MisBP:0   MisRate:0.00%    MPKI:0.00
PC:4b42a     Total:259      MisBP:0   MisRate:0.00%    MPKI:0.00
PC:4a558     Total:2621      MisBP:0   MisRate:0.00%    MPKI:0.00
PC:2e926     Total:8      MisBP:0   MisRate:0.00%    MPKI:0.00
PC:4b444     Total:192      MisBP:0   MisRate:0.00%    MPKI:0.00
PC:2e7aa     Total:206      MisBP:0   MisRate:0.00%    MPKI:0.00
PC:bff24     Total:1054      MisBP:0   MisRate:0.00%    MPKI:0.00
PC:13280     Total:567      MisBP:0   MisRate:0.00%    MPKI:0.00
PC:2e922     Total:8      MisBP:0   MisRate:0.00%    MPKI:0.00
PC:d41a4     Total:2693      MisBP:0   MisRate:0.00%    MPKI:0.00
PC:bea2e     Total:1927      MisBP:0   MisRate:0.00%    MPKI:0.00
PC:4b440     Total:64      MisBP:0   MisRate:0.00%    MPKI:0.00
PC:7f920     Total:206      MisBP:0   MisRate:0.00%    MPKI:0.00
PC:b72f2     Total:515      MisBP:0   MisRate:0.00%    MPKI:0.00
PC:e34d6     Total:295      MisBP:0   MisRate:0.00%    MPKI:0.00
PC:2e784     Total:617      MisBP:0   MisRate:0.00%    MPKI:0.00
PC:1325a     Total:424      MisBP:0   MisRate:0.00%    MPKI:0.00
PC:7f8fe     Total:306      MisBP:0   MisRate:0.00%    MPKI:0.00
PC:bb2ce     Total:46      MisBP:0   MisRate:0.00%    MPKI:0.00
PC:d4418     Total:4      MisBP:0   MisRate:0.00%    MPKI:0.00
PC:d47ea     Total:3401      MisBP:0   MisRate:0.00%    MPKI:0.00
PC:b72ce     Total:205      MisBP:0   MisRate:0.00%    MPKI:0.00
PC:2e780     Total:672      MisBP:0   MisRate:0.00%    MPKI:0.00
PC:13256     Total:424      MisBP:0   MisRate:0.00%    MPKI:0.00
PC:d47e6     Total:3401      MisBP:0   MisRate:0.00%    MPKI:0.00
PC:bea04     Total:1391      MisBP:0   MisRate:0.00%    MPKI:0.00
PC:3c350     Total:577      MisBP:0   MisRate:0.00%    MPKI:0.00
PC:bb2c6     Total:1193      MisBP:0   MisRate:0.00%    MPKI:0.00
PC:4b41e     Total:676      MisBP:0   MisRate:0.00%    MPKI:0.00
PC:d47e2     Total:3401      MisBP:0   MisRate:0.00%    MPKI:0.00
PC:bea02     Total:6955      MisBP:0   MisRate:0.00%    MPKI:0.00
PC:3c34e     Total:2795      MisBP:0   MisRate:0.00%    MPKI:0.00
PC:13250     Total:952      MisBP:0   MisRate:0.00%    MPKI:0.00
PC:be9fe     Total:1391      MisBP:0   MisRate:0.00%    MPKI:0.00
PC:bb2c0     Total:1193      MisBP:0   MisRate:0.00%    MPKI:0.00
PC:e34d0     Total:302      MisBP:0   MisRate:0.00%    MPKI:0.00
PC:d440a     Total:2      MisBP:0   MisRate:0.00%    MPKI:0.00
PC:d5ef0     Total:1      MisBP:0   MisRate:0.00%    MPKI:0.00
PC:d5eec     Total:1601      MisBP:0   MisRate:0.00%    MPKI:0.00
PC:3b44a     Total:206      MisBP:0   MisRate:0.00%    MPKI:0.00
PC:beea0     Total:1      MisBP:0   MisRate:0.00%    MPKI:0.00
PC:7f904     Total:306      MisBP:0   MisRate:0.00%    MPKI:0.00
PC:7f90a     Total:206      MisBP:0   MisRate:0.00%    MPKI:0.00
PC:d47f6     Total:34      MisBP:0   MisRate:0.00%    MPKI:0.00
PC:b72da     Total:312      MisBP:0   MisRate:0.00%    MPKI:0.00
PC:2e78c     Total:617      MisBP:0   MisRate:0.00%    MPKI:0.00
PC:13262     Total:424      MisBP:0   MisRate:0.00%    MPKI:0.00
PC:3b472     Total:852      MisBP:0   MisRate:0.00%    MPKI:0.00
PC:d47f2     Total:57      MisBP:0   MisRate:0.00%    MPKI:0.00
PC:b72d8     Total:205      MisBP:0   MisRate:0.00%    MPKI:0.00
PC:bea12     Total:1391      MisBP:0   MisRate:0.00%    MPKI:0.00
PC:3c35e     Total:14      MisBP:0   MisRate:0.00%    MPKI:0.00
PC:4b424     Total:924      MisBP:0   MisRate:0.00%    MPKI:0.00
PC:466f2     Total:204      MisBP:0   MisRate:0.00%    MPKI:0.00
PC:b4c9e     Total:7480      MisBP:0   MisRate:0.00%    MPKI:0.00
PC:2e92c     Total:371      MisBP:0   MisRate:0.00%    MPKI:0.00
PC:d47f0     Total:57      MisBP:0   MisRate:0.00%    MPKI:0.00
PC:b72d6     Total:205      MisBP:0   MisRate:0.00%    MPKI:0.00
PC:4b422     Total:926      MisBP:0   MisRate:0.00%    MPKI:0.00
PC:2e788     Total:617      MisBP:0   MisRate:0.00%    MPKI:0.00
PC:1325e     Total:424      MisBP:0   MisRate:0.00%    MPKI:0.00
PC:7f902     Total:306      MisBP:0   MisRate:0.00%    MPKI:0.00
PC:bb2d2     Total:793      MisBP:0   MisRate:0.00%    MPKI:0.00
PC:e34e2     Total:269      MisBP:0   MisRate:0.00%    MPKI:0.00
PC:d441c     Total:2      MisBP:0   MisRate:0.00%    MPKI:0.00
PC:d47ee     Total:57      MisBP:0   MisRate:0.00%    MPKI:0.00
PC:b72d2     Total:205      MisBP:0   MisRate:0.00%    MPKI:0.00
PC:bea0c     Total:1391      MisBP:0   MisRate:0.00%    MPKI:0.00
PC:4b456     Total:1      MisBP:0   MisRate:0.00%    MPKI:0.00
PC:475a6     Total:439      MisBP:0   MisRate:0.00%    MPKI:0.00
PC:ba7ae     Total:261      MisBP:0   MisRate:0.00%    MPKI:0.00
PC:4a67e     Total:1924      MisBP:0   MisRate:0.00%    MPKI:0.00
PC:a4b22     Total:36      MisBP:0   MisRate:0.00%    MPKI:0.00
PC:4a67a     Total:2632      MisBP:0   MisRate:0.00%    MPKI:0.00
PC:a4b1e     Total:36      MisBP:0   MisRate:0.00%    MPKI:0.00
PC:d482a     Total:3348      MisBP:0   MisRate:0.00%    MPKI:0.00
PC:bb6e0     Total:4003      MisBP:0   MisRate:0.00%    MPKI:0.00
PC:4a676     Total:2647      MisBP:0   MisRate:0.00%    MPKI:0.00
PC:a4b1a     Total:36      MisBP:0   MisRate:0.00%    MPKI:0.00
PC:4a672     Total:2647      MisBP:0   MisRate:0.00%    MPKI:0.00
PC:a4b16     Total:36      MisBP:0   MisRate:0.00%    MPKI:0.00
PC:bea44     Total:554      MisBP:0   MisRate:0.00%    MPKI:0.00
PC:d3cde     Total:2789      MisBP:0   MisRate:0.00%    MPKI:0.00
PC:457f4     Total:2      MisBP:0   MisRate:0.00%    MPKI:0.00
PC:46538     Total:522      MisBP:0   MisRate:0.00%    MPKI:0.00
PC:3c4b4     Total:417      MisBP:0   MisRate:0.00%    MPKI:0.00
PC:4dc72     Total:512      MisBP:0   MisRate:0.00%    MPKI:0.00
PC:99050     Total:1      MisBP:0   MisRate:0.00%    MPKI:0.00
PC:b895c     Total:1533      MisBP:0   MisRate:0.00%    MPKI:0.00
PC:130da     Total:215      MisBP:0   MisRate:0.00%    MPKI:0.00
PC:d55b6     Total:10      MisBP:0   MisRate:0.00%    MPKI:0.00
PC:b7738     Total:224      MisBP:0   MisRate:0.00%    MPKI:0.00
PC:bee72     Total:3827      MisBP:0   MisRate:0.00%    MPKI:0.00
PC:458b8     Total:412      MisBP:0   MisRate:0.00%    MPKI:0.00
PC:3e17c     Total:1577      MisBP:0   MisRate:0.00%    MPKI:0.00
PC:458b6     Total:824      MisBP:0   MisRate:0.00%    MPKI:0.00
PC:b7656     Total:868      MisBP:0   MisRate:0.00%    MPKI:0.00
PC:bb608     Total:4      MisBP:0   MisRate:0.00%    MPKI:0.00
PC:bb606     Total:4      MisBP:0   MisRate:0.00%    MPKI:0.00
PC:d474e     Total:46      MisBP:0   MisRate:0.00%    MPKI:0.00
PC:3df90     Total:9      MisBP:0   MisRate:0.00%    MPKI:0.00
PC:bb602     Total:4      MisBP:0   MisRate:0.00%    MPKI:0.00
PC:d4748     Total:12      MisBP:0   MisRate:0.00%    MPKI:0.00
PC:3df8c     Total:3      MisBP:0   MisRate:0.00%    MPKI:0.00
PC:bb5fe     Total:4      MisBP:0   MisRate:0.00%    MPKI:0.00
PC:d4744     Total:12      MisBP:0   MisRate:0.00%    MPKI:0.00
PC:3df88     Total:3      MisBP:0   MisRate:0.00%    MPKI:0.00
PC:bb5fa     Total:6      MisBP:0   MisRate:0.00%    MPKI:0.00
PC:d4740     Total:12      MisBP:0   MisRate:0.00%    MPKI:0.00
PC:d4724     Total:13      MisBP:0   MisRate:0.00%    MPKI:0.00
PC:a4d9c     Total:5      MisBP:0   MisRate:0.00%    MPKI:0.00
PC:d533e     Total:1      MisBP:0   MisRate:0.00%    MPKI:0.00
PC:d533c     Total:1      MisBP:0   MisRate:0.00%    MPKI:0.00
PC:b7650     Total:868      MisBP:0   MisRate:0.00%    MPKI:0.00
PC:d5338     Total:1      MisBP:0   MisRate:0.00%    MPKI:0.00
PC:b764c     Total:868      MisBP:0   MisRate:0.00%    MPKI:0.00
PC:d5334     Total:1      MisBP:0   MisRate:0.00%    MPKI:0.00
PC:4dc3e     Total:3      MisBP:0   MisRate:0.00%    MPKI:0.00
PC:b7648     Total:2614      MisBP:0   MisRate:0.00%    MPKI:0.00
PC:d5330     Total:1      MisBP:0   MisRate:0.00%    MPKI:0.00
PC:4dc3a     Total:3      MisBP:0   MisRate:0.00%    MPKI:0.00
PC:b7644     Total:24182      MisBP:0   MisRate:0.00%    MPKI:0.00
PC:d532c     Total:1      MisBP:0   MisRate:0.00%    MPKI:0.00
PC:bea46     Total:1477      MisBP:0   MisRate:0.00%    MPKI:0.00
PC:d482c     Total:3348      MisBP:0   MisRate:0.00%    MPKI:0.00
PC:bb6e2     Total:3      MisBP:0   MisRate:0.00%    MPKI:0.00
PC:bea4a     Total:1477      MisBP:0   MisRate:0.00%    MPKI:0.00
PC:4b45c     Total:1      MisBP:0   MisRate:0.00%    MPKI:0.00
PC:4a678     Total:2644      MisBP:0   MisRate:0.00%    MPKI:0.00
PC:2e7c2     Total:607      MisBP:0   MisRate:0.00%    MPKI:0.00
PC:bff3c     Total:487      MisBP:0   MisRate:0.00%    MPKI:0.00
PC:13298     Total:418      MisBP:0   MisRate:0.00%    MPKI:0.00
PC:4a56e     Total:2065      MisBP:0   MisRate:0.00%    MPKI:0.00
PC:15402     Total:262      MisBP:0   MisRate:0.00%    MPKI:0.00
PC:d3dce     Total:158      MisBP:0   MisRate:0.00%    MPKI:0.00
PC:d4828     Total:3348      MisBP:0   MisRate:0.00%    MPKI:0.00
PC:bb6de     Total:4003      MisBP:0   MisRate:0.00%    MPKI:0.00
PC:d3dd2     Total:158      MisBP:0   MisRate:0.00%    MPKI:0.00
PC:4b458     Total:2      MisBP:0   MisRate:0.00%    MPKI:0.00
PC:4a674     Total:2647      MisBP:0   MisRate:0.00%    MPKI:0.00
PC:bea40     Total:1108      MisBP:0   MisRate:0.00%    MPKI:0.00
PC:bea3c     Total:1110      MisBP:0   MisRate:0.00%    MPKI:0.00
PC:4b44e     Total:64      MisBP:0   MisRate:0.00%    MPKI:0.00
PC:3c388     Total:35      MisBP:0   MisRate:0.00%    MPKI:0.00
PC:3c386     Total:7      MisBP:0   MisRate:0.00%    MPKI:0.00
PC:2e7b2     Total:206      MisBP:0   MisRate:0.00%    MPKI:0.00
PC:bff2c     Total:1054      MisBP:0   MisRate:0.00%    MPKI:0.00
PC:13288     Total:567      MisBP:0   MisRate:0.00%    MPKI:0.00
PC:4a55e     Total:7863      MisBP:0   MisRate:0.00%    MPKI:0.00
PC:7f92c     Total:207      MisBP:0   MisRate:0.00%    MPKI:0.00
PC:b731e     Total:339      MisBP:0   MisRate:0.00%    MPKI:0.00
PC:3e178     Total:1577      MisBP:0   MisRate:0.00%    MPKI:0.00
PC:458b2     Total:412      MisBP:0   MisRate:0.00%    MPKI:0.00
PC:a4d98     Total:5      MisBP:0   MisRate:0.00%    MPKI:0.00
PC:3e176     Total:1      MisBP:0   MisRate:0.00%    MPKI:0.00
PC:c1bcc     Total:1755      MisBP:0   MisRate:0.00%    MPKI:0.00
PC:d5cd4     Total:1      MisBP:0   MisRate:0.00%    MPKI:0.00
PC:bea5a     Total:5071      MisBP:0   MisRate:0.00%    MPKI:0.00
PC:2e7d2     Total:607      MisBP:0   MisRate:0.00%    MPKI:0.00
PC:132a8     Total:243      MisBP:0   MisRate:0.00%    MPKI:0.00
PC:4a688     Total:3      MisBP:0   MisRate:0.00%    MPKI:0.00
PC:15412     Total:206      MisBP:0   MisRate:0.00%    MPKI:0.00
PC:d3dde     Total:1      MisBP:0   MisRate:0.00%    MPKI:0.00
PC:bb6ee     Total:3      MisBP:0   MisRate:0.00%    MPKI:0.00
PC:46b16     Total:323      MisBP:0   MisRate:0.00%    MPKI:0.00
PC:a4b2a     Total:35      MisBP:0   MisRate:0.00%    MPKI:0.00
PC:15410     Total:206      MisBP:0   MisRate:0.00%    MPKI:0.00
PC:d3ddc     Total:1      MisBP:0   MisRate:0.00%    MPKI:0.00
PC:d4836     Total:3348      MisBP:0   MisRate:0.00%    MPKI:0.00
PC:bea54     Total:7084      MisBP:0   MisRate:0.00%    MPKI:0.00
PC:bea52     Total:3542      MisBP:0   MisRate:0.00%    MPKI:0.00
PC:132a0     Total:418      MisBP:0   MisRate:0.00%    MPKI:0.00
PC:4a680     Total:1910      MisBP:0   MisRate:0.00%    MPKI:0.00
PC:1540a     Total:205      MisBP:0   MisRate:0.00%    MPKI:0.00
PC:d3dd6     Total:157      MisBP:0   MisRate:0.00%    MPKI:0.00
PC:d4830     Total:3348      MisBP:0   MisRate:0.00%    MPKI:0.00
PC:15406     Total:205      MisBP:0   MisRate:0.00%    MPKI:0.00
PC:3bfbc     Total:5568      MisBP:0   MisRate:0.00%    MPKI:0.00
PC:3c02c     Total:4782      MisBP:0   MisRate:0.00%    MPKI:0.00
PC:be6e0     Total:33301      MisBP:0   MisRate:0.00%    MPKI:0.00
PC:3bffc     Total:13228      MisBP:0   MisRate:0.00%    MPKI:0.00
PC:3bfea     Total:46551      MisBP:0   MisRate:0.00%    MPKI:0.00
PC:b965c     Total:1438      MisBP:0   MisRate:0.00%    MPKI:0.00
PC:3bfe6     Total:47201      MisBP:0   MisRate:0.00%    MPKI:0.00
PC:b9658     Total:1530      MisBP:0   MisRate:0.00%    MPKI:0.00
PC:3bfe2     Total:47209      MisBP:0   MisRate:0.00%    MPKI:0.00
PC:b9654     Total:1530      MisBP:0   MisRate:0.00%    MPKI:0.00
PC:3bfda     Total:36789      MisBP:0   MisRate:0.00%    MPKI:0.00
PC:b964c     Total:1435      MisBP:0   MisRate:0.00%    MPKI:0.00
PC:3bfc2     Total:1724      MisBP:0   MisRate:0.00%    MPKI:0.00
PC:b9634     Total:1439      MisBP:0   MisRate:0.00%    MPKI:0.00
PC:be6e4     Total:33257      MisBP:0   MisRate:0.00%    MPKI:0.00
PC:b962e     Total:1      MisBP:0   MisRate:0.00%    MPKI:0.00
PC:3bfba     Total:5568      MisBP:0   MisRate:0.00%    MPKI:0.00
PC:3bfb6     Total:11138      MisBP:0   MisRate:0.00%    MPKI:0.00
PC:b9628     Total:1      MisBP:0   MisRate:0.00%    MPKI:0.00
PC:3bfb4     Total:838      MisBP:0   MisRate:0.00%    MPKI:0.00
PC:b9626     Total:1      MisBP:0   MisRate:0.00%    MPKI:0.00
PC:3bfb2     Total:838      MisBP:0   MisRate:0.00%    MPKI:0.00
PC:3bfb0     Total:838      MisBP:0   MisRate:0.00%    MPKI:0.00
PC:b9622     Total:1530      MisBP:0   MisRate:0.00%    MPKI:0.00
PC:3bfae     Total:838      MisBP:0   MisRate:0.00%    MPKI:0.00
PC:b9620     Total:1530      MisBP:0   MisRate:0.00%    MPKI:0.00
PC:3bfac     Total:838      MisBP:0   MisRate:0.00%    MPKI:0.00
PC:b961e     Total:1530      MisBP:0   MisRate:0.00%    MPKI:0.00
PC:3c138     Total:2309      MisBP:0   MisRate:0.00%    MPKI:0.00
PC:d48a4     Total:1      MisBP:0   MisRate:0.00%    MPKI:0.00
PC:3e0e4     Total:268445      MisBP:0   MisRate:0.00%    MPKI:0.00
PC:d48a0     Total:1      MisBP:0   MisRate:0.00%    MPKI:0.00
PC:3e0d2     Total:10162      MisBP:0   MisRate:0.00%    MPKI:0.00
PC:3c016     Total:9599      MisBP:0   MisRate:0.00%    MPKI:0.00
PC:3c010     Total:9599      MisBP:0   MisRate:0.00%    MPKI:0.00
PC:be6c4     Total:63927      MisBP:0   MisRate:0.00%    MPKI:0.00
PC:3c00c     Total:9599      MisBP:0   MisRate:0.00%    MPKI:0.00
PC:be6c0     Total:63928      MisBP:0   MisRate:0.00%    MPKI:0.00
PC:3c006     Total:10203      MisBP:0   MisRate:0.00%    MPKI:0.00
PC:3c13c     Total:2013      MisBP:0   MisRate:0.00%    MPKI:0.00
PC:3c13a     Total:2013      MisBP:0   MisRate:0.00%    MPKI:0.00
PC:be7ee     Total:4497      MisBP:0   MisRate:0.00%    MPKI:0.00
PC:3bfaa     Total:838      MisBP:0   MisRate:0.00%    MPKI:0.00
PC:3c136     Total:2337      MisBP:0   MisRate:0.00%    MPKI:0.00
PC:be7ea     Total:9004      MisBP:0   MisRate:0.00%    MPKI:0.00
PC:3c134     Total:2338      MisBP:0   MisRate:0.00%    MPKI:0.00
PC:3c132     Total:2338      MisBP:0   MisRate:0.00%    MPKI:0.00
PC:be7e6     Total:9006      MisBP:0   MisRate:0.00%    MPKI:0.00
PC:3c130     Total:2338      MisBP:0   MisRate:0.00%    MPKI:0.00
PC:be7e4     Total:2337      MisBP:0   MisRate:0.00%    MPKI:0.00
PC:3c12c     Total:2338      MisBP:0   MisRate:0.00%    MPKI:0.00
PC:be7e0     Total:2337      MisBP:0   MisRate:0.00%    MPKI:0.00
PC:3c01a     Total:1473      MisBP:0   MisRate:0.00%    MPKI:0.00
PC:3c03a     Total:10526      MisBP:0   MisRate:0.00%    MPKI:0.00
PC:3c030     Total:358      MisBP:0   MisRate:0.00%    MPKI:0.00
PC:be60c     Total:430      MisBP:0   MisRate:0.00%    MPKI:0.00
PC:3c100     Total:3024      MisBP:0   MisRate:0.00%    MPKI:0.00
PC:be7b4     Total:29350      MisBP:0   MisRate:0.00%    MPKI:0.00
PC:a475a     Total:2      MisBP:0   MisRate:0.00%    MPKI:0.00
PC:12fdc     Total:688      MisBP:0   MisRate:0.00%    MPKI:0.00
PC:a4756     Total:2      MisBP:0   MisRate:0.00%    MPKI:0.00
PC:be612     Total:430      MisBP:0   MisRate:0.00%    MPKI:0.00
PC:be610     Total:430      MisBP:0   MisRate:0.00%    MPKI:0.00
PC:3d378     Total:834      MisBP:0   MisRate:0.00%    MPKI:0.00
PC:473fc     Total:4      MisBP:0   MisRate:0.00%    MPKI:0.00
PC:12fd8     Total:688      MisBP:0   MisRate:0.00%    MPKI:0.00
PC:a4752     Total:2      MisBP:0   MisRate:0.00%    MPKI:0.00
PC:be60e     Total:430      MisBP:0   MisRate:0.00%    MPKI:0.00
PC:12fd6     Total:688      MisBP:0   MisRate:0.00%    MPKI:0.00
PC:be7b8     Total:29308      MisBP:0   MisRate:0.00%    MPKI:0.00
PC:c8690     Total:12      MisBP:0   MisRate:0.00%    MPKI:0.00
PC:3d374     Total:417      MisBP:0   MisRate:0.00%    MPKI:0.00
PC:473f8     Total:5      MisBP:0   MisRate:0.00%    MPKI:0.00
PC:d3b30     Total:2262      MisBP:0   MisRate:0.00%    MPKI:0.00
PC:be608     Total:430      MisBP:0   MisRate:0.00%    MPKI:0.00
PC:3d370     Total:419      MisBP:0   MisRate:0.00%    MPKI:0.00
PC:d3b2c     Total:2262      MisBP:0   MisRate:0.00%    MPKI:0.00
PC:be604     Total:430      MisBP:0   MisRate:0.00%    MPKI:0.00
PC:3d36c     Total:419      MisBP:0   MisRate:0.00%    MPKI:0.00
PC:12fcc     Total:688      MisBP:0   MisRate:0.00%    MPKI:0.00
PC:a4746     Total:2      MisBP:0   MisRate:0.00%    MPKI:0.00
PC:be602     Total:430      MisBP:0   MisRate:0.00%    MPKI:0.00
PC:3c120     Total:982      MisBP:0   MisRate:0.00%    MPKI:0.00
PC:b961c     Total:10710      MisBP:0   MisRate:0.00%    MPKI:0.00
PC:3bfa8     Total:838      MisBP:0   MisRate:0.00%    MPKI:0.00
PC:3bfa6     Total:838      MisBP:0   MisRate:0.00%    MPKI:0.00
PC:3bfa2     Total:1676      MisBP:0   MisRate:0.00%    MPKI:0.00
PC:3bfa0     Total:838      MisBP:0   MisRate:0.00%    MPKI:0.00
PC:3bf9e     Total:838      MisBP:0   MisRate:0.00%    MPKI:0.00
PC:3bf9a     Total:838      MisBP:0   MisRate:0.00%    MPKI:0.00
PC:3bf98     Total:838      MisBP:0   MisRate:0.00%    MPKI:0.00
PC:3bf94     Total:8436      MisBP:0   MisRate:0.00%    MPKI:0.00
PC:3c128     Total:4677      MisBP:0   MisRate:0.00%    MPKI:0.00
PC:3c126     Total:963      MisBP:0   MisRate:0.00%    MPKI:0.00
PC:be7da     Total:2338      MisBP:0   MisRate:0.00%    MPKI:0.00
PC:3c122     Total:982      MisBP:0   MisRate:0.00%    MPKI:0.00
PC:3e0ea     Total:221377      MisBP:0   MisRate:0.00%    MPKI:0.00
PC:be7d4     Total:29171      MisBP:0   MisRate:0.00%    MPKI:0.00
PC:3c11e     Total:982      MisBP:0   MisRate:0.00%    MPKI:0.00
PC:3c11c     Total:982      MisBP:0   MisRate:0.00%    MPKI:0.00
PC:be7d0     Total:58344      MisBP:0   MisRate:0.00%    MPKI:0.00
PC:3c11a     Total:982      MisBP:0   MisRate:0.00%    MPKI:0.00
PC:be7cc     Total:29145      MisBP:0   MisRate:0.00%    MPKI:0.00
PC:3c114     Total:1141      MisBP:0   MisRate:0.00%    MPKI:0.00
PC:be7c8     Total:29147      MisBP:0   MisRate:0.00%    MPKI:0.00
PC:3c10e     Total:430      MisBP:0   MisRate:0.00%    MPKI:0.00
PC:3c108     Total:430      MisBP:0   MisRate:0.00%    MPKI:0.00
PC:be7bc     Total:29307      MisBP:0   MisRate:0.00%    MPKI:0.00
PC:3c104     Total:432      MisBP:0   MisRate:0.00%    MPKI:0.00
PC:3c048     Total:230      MisBP:0   MisRate:0.00%    MPKI:0.00
PC:3c060     Total:1      MisBP:0   MisRate:0.00%    MPKI:0.00
PC:be714     Total:107      MisBP:0   MisRate:0.00%    MPKI:0.00
PC:3c05a     Total:1      MisBP:0   MisRate:0.00%    MPKI:0.00
PC:3c056     Total:321      MisBP:0   MisRate:0.00%    MPKI:0.00
PC:3c054     Total:281      MisBP:0   MisRate:0.00%    MPKI:0.00
PC:be708     Total:107      MisBP:0   MisRate:0.00%    MPKI:0.00
PC:3c052     Total:281      MisBP:0   MisRate:0.00%    MPKI:0.00
PC:3c050     Total:281      MisBP:0   MisRate:0.00%    MPKI:0.00
PC:be704     Total:107      MisBP:0   MisRate:0.00%    MPKI:0.00
PC:3c04e     Total:230      MisBP:0   MisRate:0.00%    MPKI:0.00
PC:3c04c     Total:230      MisBP:0   MisRate:0.00%    MPKI:0.00
PC:be700     Total:107      MisBP:0   MisRate:0.00%    MPKI:0.00
PC:3c04a     Total:230      MisBP:0   MisRate:0.00%    MPKI:0.00
PC:3c152     Total:232      MisBP:0   MisRate:0.00%    MPKI:0.00
PC:be6fc     Total:109      MisBP:0   MisRate:0.00%    MPKI:0.00
PC:3c046     Total:230      MisBP:0   MisRate:0.00%    MPKI:0.00
PC:3e08a     Total:440121      MisBP:0   MisRate:0.00%    MPKI:0.00
PC:3e188     Total:69258      MisBP:0   MisRate:0.00%    MPKI:0.00
PC:3e184     Total:3      MisBP:0   MisRate:0.00%    MPKI:0.00
PC:3e180     Total:1520      MisBP:0   MisRate:0.00%    MPKI:0.00
PC:3e164     Total:54758      MisBP:0   MisRate:0.00%    MPKI:0.00
PC:3e162     Total:54758      MisBP:0   MisRate:0.00%    MPKI:0.00
PC:3e160     Total:54758      MisBP:0   MisRate:0.00%    MPKI:0.00
PC:3e15e     Total:54759      MisBP:0   MisRate:0.00%    MPKI:0.00
PC:3e15c     Total:54759      MisBP:0   MisRate:0.00%    MPKI:0.00
PC:3c14e     Total:235      MisBP:0   MisRate:0.00%    MPKI:0.00
PC:3c14c     Total:235      MisBP:0   MisRate:0.00%    MPKI:0.00
PC:be822     Total:3163      MisBP:0   MisRate:0.00%    MPKI:0.00
PC:3e1e8     Total:3470      MisBP:0   MisRate:0.00%    MPKI:0.00
PC:3e1e2     Total:302689      MisBP:0   MisRate:0.00%    MPKI:0.00
PC:3e1de     Total:352270      MisBP:0   MisRate:0.00%    MPKI:0.00
PC:3c17e     Total:218      MisBP:0   MisRate:0.00%    MPKI:0.00
PC:be832     Total:3213      MisBP:0   MisRate:0.00%    MPKI:0.00
PC:3c17a     Total:218      MisBP:0   MisRate:0.00%    MPKI:0.00
PC:be82e     Total:6437      MisBP:0   MisRate:0.00%    MPKI:0.00
PC:3c178     Total:218      MisBP:0   MisRate:0.00%    MPKI:0.00
PC:3c176     Total:218      MisBP:0   MisRate:0.00%    MPKI:0.00
PC:be82a     Total:3162      MisBP:0   MisRate:0.00%    MPKI:0.00
PC:3c172     Total:221      MisBP:0   MisRate:0.00%    MPKI:0.00
PC:be826     Total:3162      MisBP:0   MisRate:0.00%    MPKI:0.00
PC:3c16e     Total:221      MisBP:0   MisRate:0.00%    MPKI:0.00
PC:be800     Total:2673      MisBP:0   MisRate:0.00%    MPKI:0.00
PC:3c16c     Total:221      MisBP:0   MisRate:0.00%    MPKI:0.00
PC:3c168     Total:221      MisBP:0   MisRate:0.00%    MPKI:0.00
PC:3c166     Total:221      MisBP:0   MisRate:0.00%    MPKI:0.00
PC:be81a     Total:3183      MisBP:0   MisRate:0.00%    MPKI:0.00
PC:3c164     Total:221      MisBP:0   MisRate:0.00%    MPKI:0.00
PC:3c160     Total:232      MisBP:0   MisRate:0.00%    MPKI:0.00
PC:be814     Total:3183      MisBP:0   MisRate:0.00%    MPKI:0.00
PC:3c15e     Total:232      MisBP:0   MisRate:0.00%    MPKI:0.00
PC:3c15a     Total:232      MisBP:0   MisRate:0.00%    MPKI:0.00
PC:3c156     Total:232      MisBP:0   MisRate:0.00%    MPKI:0.00
PC:3c154     Total:232      MisBP:0   MisRate:0.00%    MPKI:0.00
PC:be808     Total:2661      MisBP:0   MisRate:0.00%    MPKI:0.00
PC:d48b6     Total:1      MisBP:0   MisRate:0.00%    MPKI:0.00
PC:3e10e     Total:32      MisBP:0   MisRate:0.00%    MPKI:0.00
PC:3e10c     Total:32      MisBP:0   MisRate:0.00%    MPKI:0.00
PC:3e10a     Total:33      MisBP:0   MisRate:0.00%    MPKI:0.00
PC:3e108     Total:33      MisBP:0   MisRate:0.00%    MPKI:0.00
PC:3e106     Total:33      MisBP:0   MisRate:0.00%    MPKI:0.00
PC:3e104     Total:33      MisBP:0   MisRate:0.00%    MPKI:0.00
PC:3e102     Total:33      MisBP:0   MisRate:0.00%    MPKI:0.00
PC:3e100     Total:33      MisBP:0   MisRate:0.00%    MPKI:0.00
PC:d48bc     Total:1      MisBP:0   MisRate:0.00%    MPKI:0.00
PC:3e0fe     Total:35      MisBP:0   MisRate:0.00%    MPKI:0.00
PC:3e0fc     Total:35      MisBP:0   MisRate:0.00%    MPKI:0.00
PC:d48b8     Total:1      MisBP:0   MisRate:0.00%    MPKI:0.00
PC:3e0fa     Total:35      MisBP:0   MisRate:0.00%    MPKI:0.00
PC:3e110     Total:32      MisBP:0   MisRate:0.00%    MPKI:0.00
PC:3e0f8     Total:35      MisBP:0   MisRate:0.00%    MPKI:0.00
PC:d48b4     Total:1      MisBP:0   MisRate:0.00%    MPKI:0.00
PC:3e0f6     Total:35      MisBP:0   MisRate:0.00%    MPKI:0.00
PC:d48b2     Total:1      MisBP:0   MisRate:0.00%    MPKI:0.00
PC:3e0f4     Total:35      MisBP:0   MisRate:0.00%    MPKI:0.00
PC:3e0f2     Total:35      MisBP:0   MisRate:0.00%    MPKI:0.00
PC:d48ae     Total:1      MisBP:0   MisRate:0.00%    MPKI:0.00
PC:d48ac     Total:1      MisBP:0   MisRate:0.00%    MPKI:0.00
PC:3e0ee     Total:221246      MisBP:0   MisRate:0.00%    MPKI:0.00
PC:d48aa     Total:1      MisBP:0   MisRate:0.00%    MPKI:0.00
PC:3e0ec     Total:221368      MisBP:0   MisRate:0.00%    MPKI:0.00
PC:d48a8     Total:1      MisBP:0   MisRate:0.00%    MPKI:0.00
PC:3e12c     Total:267913      MisBP:0   MisRate:0.00%    MPKI:0.00
PC:3c148     Total:1647      MisBP:0   MisRate:0.00%    MPKI:0.00
PC:be7fc     Total:2751      MisBP:0   MisRate:0.00%    MPKI:0.00
PC:3c144     Total:3294      MisBP:0   MisRate:0.00%    MPKI:0.00
PC:3c142     Total:1647      MisBP:0   MisRate:0.00%    MPKI:0.00
PC:be7f6     Total:4496      MisBP:0   MisRate:0.00%    MPKI:0.00
PC:3e174     Total:1      MisBP:0   MisRate:0.00%    MPKI:0.00
PC:3e170     Total:1      MisBP:0   MisRate:0.00%    MPKI:0.00
PC:3e16c     Total:259161      MisBP:0   MisRate:0.00%    MPKI:0.00
PC:3e138     Total:10602      MisBP:0   MisRate:0.00%    MPKI:0.00
PC:3e136     Total:31806      MisBP:0   MisRate:0.00%    MPKI:0.00
PC:3e134     Total:10602      MisBP:0   MisRate:0.00%    MPKI:0.00
PC:3e132     Total:10602      MisBP:0   MisRate:0.00%    MPKI:0.00
PC:3e130     Total:10610      MisBP:0   MisRate:0.00%    MPKI:0.00
PC:c8686     Total:1      MisBP:0   MisRate:0.00%    MPKI:0.00
PC:3e12a     Total:267914      MisBP:0   MisRate:0.00%    MPKI:0.00
PC:3e128     Total:267944      MisBP:0   MisRate:0.00%    MPKI:0.00
PC:3e126     Total:267944      MisBP:0   MisRate:0.00%    MPKI:0.00
PC:3e124     Total:268142      MisBP:0   MisRate:0.00%    MPKI:0.00
PC:3e122     Total:268142      MisBP:0   MisRate:0.00%    MPKI:0.00
PC:3e11e     Total:32      MisBP:0   MisRate:0.00%    MPKI:0.00
PC:3e11c     Total:32      MisBP:0   MisRate:0.00%    MPKI:0.00
PC:3e11a     Total:32      MisBP:0   MisRate:0.00%    MPKI:0.00
PC:3e118     Total:32      MisBP:0   MisRate:0.00%    MPKI:0.00
PC:3e116     Total:32      MisBP:0   MisRate:0.00%    MPKI:0.00
PC:3e114     Total:32      MisBP:0   MisRate:0.00%    MPKI:0.00
PC:3e112     Total:32      MisBP:0   MisRate:0.00%    MPKI:0.00
PC:41dec     Total:1      MisBP:0   MisRate:0.00%    MPKI:0.00
PC:d46c4     Total:388      MisBP:0   MisRate:0.00%    MPKI:0.00
PC:bb57a     Total:3809      MisBP:0   MisRate:0.00%    MPKI:0.00
PC:41df6     Total:1      MisBP:0   MisRate:0.00%    MPKI:0.00
PC:bb576     Total:3809      MisBP:0   MisRate:0.00%    MPKI:0.00
PC:b69d6     Total:494      MisBP:0   MisRate:0.00%    MPKI:0.00
PC:41df4     Total:1      MisBP:0   MisRate:0.00%    MPKI:0.00
PC:d46be     Total:429      MisBP:0   MisRate:0.00%    MPKI:0.00
PC:bb574     Total:3809      MisBP:0   MisRate:0.00%    MPKI:0.00
PC:b69d4     Total:494      MisBP:0   MisRate:0.00%    MPKI:0.00
PC:41df2     Total:1      MisBP:0   MisRate:0.00%    MPKI:0.00
PC:d46bc     Total:444      MisBP:0   MisRate:0.00%    MPKI:0.00
PC:bb572     Total:3809      MisBP:0   MisRate:0.00%    MPKI:0.00
PC:41dee     Total:1      MisBP:0   MisRate:0.00%    MPKI:0.00
PC:b69dc     Total:360      MisBP:0   MisRate:0.00%    MPKI:0.00
PC:d46b6     Total:444      MisBP:0   MisRate:0.00%    MPKI:0.00
PC:bb56c     Total:3805      MisBP:0   MisRate:0.00%    MPKI:0.00
PC:41de8     Total:1      MisBP:0   MisRate:0.00%    MPKI:0.00
PC:d46b2     Total:444      MisBP:0   MisRate:0.00%    MPKI:0.00
PC:e3522     Total:574      MisBP:0   MisRate:0.00%    MPKI:0.00
PC:7effa     Total:518      MisBP:0   MisRate:0.00%    MPKI:0.00
PC:d445c     Total:1      MisBP:0   MisRate:0.00%    MPKI:0.00
PC:41de4     Total:1      MisBP:0   MisRate:0.00%    MPKI:0.00
PC:d46ae     Total:444      MisBP:0   MisRate:0.00%    MPKI:0.00
PC:bb564     Total:3809      MisBP:0   MisRate:0.00%    MPKI:0.00
PC:41de0     Total:204      MisBP:0   MisRate:0.00%    MPKI:0.00
PC:bb560     Total:3809      MisBP:0   MisRate:0.00%    MPKI:0.00
PC:e351c     Total:288      MisBP:0   MisRate:0.00%    MPKI:0.00
PC:d46d4     Total:388      MisBP:0   MisRate:0.00%    MPKI:0.00
PC:d46de     Total:350      MisBP:0   MisRate:0.00%    MPKI:0.00
PC:3df22     Total:233      MisBP:0   MisRate:0.00%    MPKI:0.00
PC:bb594     Total:49788      MisBP:0   MisRate:0.00%    MPKI:0.00
PC:b69f2     Total:1      MisBP:0   MisRate:0.00%    MPKI:0.00
PC:d46da     Total:350      MisBP:0   MisRate:0.00%    MPKI:0.00
PC:3df1e     Total:466      MisBP:0   MisRate:0.00%    MPKI:0.00
PC:bb590     Total:46165      MisBP:0   MisRate:0.00%    MPKI:0.00
PC:d46d8     Total:350      MisBP:0   MisRate:0.00%    MPKI:0.00
PC:3df1c     Total:233      MisBP:0   MisRate:0.00%    MPKI:0.00
PC:b69ee     Total:1      MisBP:0   MisRate:0.00%    MPKI:0.00
PC:d46d6     Total:388      MisBP:0   MisRate:0.00%    MPKI:0.00
PC:bb58c     Total:92458      MisBP:0   MisRate:0.00%    MPKI:0.00
PC:b69ec     Total:1      MisBP:0   MisRate:0.00%    MPKI:0.00
PC:7eff4     Total:1      MisBP:0   MisRate:0.00%    MPKI:0.00
PC:bb58a     Total:3686      MisBP:0   MisRate:0.00%    MPKI:0.00
PC:b69e8     Total:1      MisBP:0   MisRate:0.00%    MPKI:0.00
PC:d46d0     Total:388      MisBP:0   MisRate:0.00%    MPKI:0.00
PC:bb586     Total:3686      MisBP:0   MisRate:0.00%    MPKI:0.00
PC:b69e4     Total:1      MisBP:0   MisRate:0.00%    MPKI:0.00
PC:d46cc     Total:388      MisBP:0   MisRate:0.00%    MPKI:0.00
PC:bb582     Total:3687      MisBP:0   MisRate:0.00%    MPKI:0.00
PC:b69e2     Total:1      MisBP:0   MisRate:0.00%    MPKI:0.00
PC:d46ca     Total:388      MisBP:0   MisRate:0.00%    MPKI:0.00
PC:41dfc     Total:1      MisBP:0   MisRate:0.00%    MPKI:0.00
PC:d46c6     Total:388      MisBP:0   MisRate:0.00%    MPKI:0.00
PC:bb57c     Total:3804      MisBP:0   MisRate:0.00%    MPKI:0.00
PC:d3baa     Total:853      MisBP:0   MisRate:0.00%    MPKI:0.00
PC:a46fa     Total:473      MisBP:0   MisRate:0.00%    MPKI:0.00
PC:3d2fa     Total:207      MisBP:0   MisRate:0.00%    MPKI:0.00
PC:12f5a     Total:454      MisBP:0   MisRate:0.00%    MPKI:0.00
PC:3d2f8     Total:207      MisBP:0   MisRate:0.00%    MPKI:0.00
PC:4737c     Total:3717      MisBP:0   MisRate:0.00%    MPKI:0.00
PC:12f58     Total:454      MisBP:0   MisRate:0.00%    MPKI:0.00
PC:a46d2     Total:473      MisBP:0   MisRate:0.00%    MPKI:0.00
PC:3d2f6     Total:207      MisBP:0   MisRate:0.00%    MPKI:0.00
PC:3d2f4     Total:207      MisBP:0   MisRate:0.00%    MPKI:0.00
PC:12f52     Total:454      MisBP:0   MisRate:0.00%    MPKI:0.00
PC:3d2f0     Total:1656      MisBP:0   MisRate:0.00%    MPKI:0.00
PC:ba36c     Total:9      MisBP:0   MisRate:0.00%    MPKI:0.00
PC:1019c     Total:47      MisBP:0   MisRate:0.00%    MPKI:0.00
PC:12f80     Total:215      MisBP:0   MisRate:0.00%    MPKI:0.00
PC:3ccf8     Total:265      MisBP:0   MisRate:0.00%    MPKI:0.00
PC:3ccf6     Total:265      MisBP:0   MisRate:0.00%    MPKI:0.00
PC:ba368     Total:10      MisBP:0   MisRate:0.00%    MPKI:0.00
PC:ba366     Total:10      MisBP:0   MisRate:0.00%    MPKI:0.00
PC:3ccf2     Total:232      MisBP:0   MisRate:0.00%    MPKI:0.00
PC:3ccf0     Total:232      MisBP:0   MisRate:0.00%    MPKI:0.00
PC:ba362     Total:7      MisBP:0   MisRate:0.00%    MPKI:0.00
PC:4bb60     Total:1      MisBP:0   MisRate:0.00%    MPKI:0.00
PC:4bb5c     Total:2      MisBP:0   MisRate:0.00%    MPKI:0.00
PC:46b1a     Total:322      MisBP:0   MisRate:0.00%    MPKI:0.00
PC:1018c     Total:47      MisBP:0   MisRate:0.00%    MPKI:0.00
PC:4bb58     Total:3      MisBP:0   MisRate:0.00%    MPKI:0.00
PC:4707c     Total:400      MisBP:0   MisRate:0.00%    MPKI:0.00
PC:41dde     Total:204      MisBP:0   MisRate:0.00%    MPKI:0.00
PC:d46a8     Total:454      MisBP:0   MisRate:0.00%    MPKI:0.00
PC:bb55e     Total:3809      MisBP:0   MisRate:0.00%    MPKI:0.00
PC:e3518     Total:290      MisBP:0   MisRate:0.00%    MPKI:0.00
PC:bb308     Total:206      MisBP:0   MisRate:0.00%    MPKI:0.00
PC:d46a4     Total:454      MisBP:0   MisRate:0.00%    MPKI:0.00
PC:bb55a     Total:3809      MisBP:0   MisRate:0.00%    MPKI:0.00
PC:3c1c4     Total:2      MisBP:0   MisRate:0.00%    MPKI:0.00
PC:e287e     Total:109      MisBP:0   MisRate:0.00%    MPKI:0.00
PC:47080     Total:398      MisBP:0   MisRate:0.00%    MPKI:0.00
PC:3c1c2     Total:2      MisBP:0   MisRate:0.00%    MPKI:0.00
PC:e287c     Total:112      MisBP:0   MisRate:0.00%    MPKI:0.00
PC:e287a     Total:133      MisBP:0   MisRate:0.00%    MPKI:0.00
PC:3df24     Total:233      MisBP:0   MisRate:0.00%    MPKI:0.00
PC:3c1bc     Total:4      MisBP:0   MisRate:0.00%    MPKI:0.00
PC:e2876     Total:133      MisBP:0   MisRate:0.00%    MPKI:0.00
PC:47078     Total:400      MisBP:0   MisRate:0.00%    MPKI:0.00
PC:3c1b8     Total:4      MisBP:0   MisRate:0.00%    MPKI:0.00
PC:e2872     Total:135      MisBP:0   MisRate:0.00%    MPKI:0.00
PC:3c1b4     Total:5      MisBP:0   MisRate:0.00%    MPKI:0.00
PC:e286e     Total:135      MisBP:0   MisRate:0.00%    MPKI:0.00
PC:3c1b2     Total:5      MisBP:0   MisRate:0.00%    MPKI:0.00
PC:e286c     Total:135      MisBP:0   MisRate:0.00%    MPKI:0.00
PC:3c1ae     Total:6      MisBP:0   MisRate:0.00%    MPKI:0.00
PC:e2868     Total:135      MisBP:0   MisRate:0.00%    MPKI:0.00
PC:e2866     Total:139      MisBP:0   MisRate:0.00%    MPKI:0.00
PC:c1bec     Total:26      MisBP:0   MisRate:0.00%    MPKI:0.00
PC:d5d30     Total:9      MisBP:0   MisRate:0.00%    MPKI:0.00
PC:14e360     Total:3      MisBP:0   MisRate:0.00%    MPKI:0.00
PC:c1c24     Total:2299      MisBP:0   MisRate:0.00%    MPKI:0.00
PC:3e1ae     Total:6471      MisBP:0   MisRate:0.00%    MPKI:0.00
PC:c1c04     Total:2138      MisBP:0   MisRate:0.00%    MPKI:0.00
PC:c1c00     Total:2138      MisBP:0   MisRate:0.00%    MPKI:0.00
PC:d5d08     Total:4076      MisBP:0   MisRate:0.00%    MPKI:0.00
PC:3e1a6     Total:91021      MisBP:0   MisRate:0.00%    MPKI:0.00
PC:c1bfc     Total:1322      MisBP:0   MisRate:0.00%    MPKI:0.00
PC:d5d04     Total:4077      MisBP:0   MisRate:0.00%    MPKI:0.00
PC:3e19e     Total:83892      MisBP:0   MisRate:0.00%    MPKI:0.00
PC:c1bf4     Total:26      MisBP:0   MisRate:0.00%    MPKI:0.00
PC:3e196     Total:84564      MisBP:0   MisRate:0.00%    MPKI:0.00
PC:c1c28     Total:4598      MisBP:0   MisRate:0.00%    MPKI:0.00
PC:3e18e     Total:9866      MisBP:0   MisRate:0.00%    MPKI:0.00
PC:c1be4     Total:26      MisBP:0   MisRate:0.00%    MPKI:0.00
PC:3e17a     Total:1577      MisBP:0   MisRate:0.00%    MPKI:0.00
PC:c1bd0     Total:1755      MisBP:0   MisRate:0.00%    MPKI:0.00
PC:3e172     Total:1      MisBP:0   MisRate:0.00%    MPKI:0.00
PC:d5cd0     Total:1      MisBP:0   MisRate:0.00%    MPKI:0.00
PC:3e16e     Total:257786      MisBP:0   MisRate:0.00%    MPKI:0.00
PC:c1bc4     Total:1756      MisBP:0   MisRate:0.00%    MPKI:0.00
PC:d5ccc     Total:1      MisBP:0   MisRate:0.00%    MPKI:0.00
PC:3e16a     Total:259640      MisBP:0   MisRate:0.00%    MPKI:0.00
PC:c1bc0     Total:1756      MisBP:0   MisRate:0.00%    MPKI:0.00
PC:d5cc8     Total:1      MisBP:0   MisRate:0.00%    MPKI:0.00
PC:10178     Total:121      MisBP:0   MisRate:0.00%    MPKI:0.00
PC:12fb6     Total:213      MisBP:0   MisRate:0.00%    MPKI:0.00
PC:be600     Total:430      MisBP:0   MisRate:0.00%    MPKI:0.00
PC:c8684     Total:1      MisBP:0   MisRate:0.00%    MPKI:0.00
PC:3d368     Total:420      MisBP:0   MisRate:0.00%    MPKI:0.00
PC:12fc6     Total:688      MisBP:0   MisRate:0.00%    MPKI:0.00
PC:3d364     Total:420      MisBP:0   MisRate:0.00%    MPKI:0.00
PC:473e8     Total:68729      MisBP:0   MisRate:0.00%    MPKI:0.00
PC:12fc2     Total:608      MisBP:0   MisRate:0.00%    MPKI:0.00
PC:3d360     Total:420      MisBP:0   MisRate:0.00%    MPKI:0.00
PC:473e4     Total:68778      MisBP:0   MisRate:0.00%    MPKI:0.00
PC:12fbe     Total:613      MisBP:0   MisRate:0.00%    MPKI:0.00
PC:3d35c     Total:420      MisBP:0   MisRate:0.00%    MPKI:0.00
PC:473e0     Total:68355      MisBP:0   MisRate:0.00%    MPKI:0.00
PC:d3b18     Total:2262      MisBP:0   MisRate:0.00%    MPKI:0.00
PC:bff58     Total:1675      MisBP:0   MisRate:0.00%    MPKI:0.00
PC:4f2ce     Total:1212      MisBP:0   MisRate:0.00%    MPKI:0.00
PC:3d354     Total:421      MisBP:0   MisRate:0.00%    MPKI:0.00
PC:473d8     Total:70292      MisBP:0   MisRate:0.00%    MPKI:0.00
PC:12fb2     Total:213      MisBP:0   MisRate:0.00%    MPKI:0.00
PC:4f2ca     Total:404      MisBP:0   MisRate:0.00%    MPKI:0.00
PC:3d350     Total:421      MisBP:0   MisRate:0.00%    MPKI:0.00
PC:473d4     Total:11      MisBP:0   MisRate:0.00%    MPKI:0.00
PC:3d34c     Total:421      MisBP:0   MisRate:0.00%    MPKI:0.00
PC:12fa0     Total:414      MisBP:0   MisRate:0.00%    MPKI:0.00
PC:a471a     Total:473      MisBP:0   MisRate:0.00%    MPKI:0.00
PC:3d33e     Total:206      MisBP:0   MisRate:0.00%    MPKI:0.00
PC:473c2     Total:12      MisBP:0   MisRate:0.00%    MPKI:0.00
PC:12f94     Total:239      MisBP:0   MisRate:0.00%    MPKI:0.00
PC:3c1d8     Total:2      MisBP:0   MisRate:0.00%    MPKI:0.00
PC:e2892     Total:94      MisBP:0   MisRate:0.00%    MPKI:0.00
PC:e2890     Total:94      MisBP:0   MisRate:0.00%    MPKI:0.00
PC:3c1d2     Total:2      MisBP:0   MisRate:0.00%    MPKI:0.00
PC:e288c     Total:102      MisBP:0   MisRate:0.00%    MPKI:0.00
PC:e288a     Total:102      MisBP:0   MisRate:0.00%    MPKI:0.00
PC:3c1cc     Total:2      MisBP:0   MisRate:0.00%    MPKI:0.00
PC:e2886     Total:102      MisBP:0   MisRate:0.00%    MPKI:0.00
PC:e2884     Total:102      MisBP:0   MisRate:0.00%    MPKI:0.00
PC:3c1c8     Total:2      MisBP:0   MisRate:0.00%    MPKI:0.00
PC:e2882     Total:102      MisBP:0   MisRate:0.00%    MPKI:0.00
PC:47084     Total:398      MisBP:0   MisRate:0.00%    MPKI:0.00
PC:e2880     Total:102      MisBP:0   MisRate:0.00%    MPKI:0.00
PC:e2894     Total:85      MisBP:0   MisRate:0.00%    MPKI:0.00
PC:a470e     Total:473      MisBP:0   MisRate:0.00%    MPKI:0.00
PC:3d332     Total:206      MisBP:0   MisRate:0.00%    MPKI:0.00
PC:d46e8     Total:348      MisBP:0   MisRate:0.00%    MPKI:0.00
PC:3df2c     Total:30      MisBP:0   MisRate:0.00%    MPKI:0.00
PC:d46e6     Total:348      MisBP:0   MisRate:0.00%    MPKI:0.00
PC:bb59c     Total:4194      MisBP:0   MisRate:0.00%    MPKI:0.00
PC:d46e4     Total:348      MisBP:0   MisRate:0.00%    MPKI:0.00
PC:bb59a     Total:4229      MisBP:0   MisRate:0.00%    MPKI:0.00
PC:d46e2     Total:348      MisBP:0   MisRate:0.00%    MPKI:0.00
PC:3df26     Total:466      MisBP:0   MisRate:0.00%    MPKI:0.00
PC:d46e0     Total:350      MisBP:0   MisRate:0.00%    MPKI:0.00
PC:bb596     Total:49733      MisBP:0   MisRate:0.00%    MPKI:0.00
PC:3c1ec     Total:233      MisBP:0   MisRate:0.00%    MPKI:0.00
PC:2e7de     Total:2928      MisBP:0   MisRate:0.00%    MPKI:0.00
PC:bff54     Total:1306      MisBP:0   MisRate:0.00%    MPKI:0.00
PC:2e7da     Total:2975      MisBP:0   MisRate:0.00%    MPKI:0.00
PC:e28b4     Total:52      MisBP:0   MisRate:0.00%    MPKI:0.00
PC:3c1f8     Total:1      MisBP:0   MisRate:0.00%    MPKI:0.00
PC:e28b2     Total:52      MisBP:0   MisRate:0.00%    MPKI:0.00
PC:e28b0     Total:52      MisBP:0   MisRate:0.00%    MPKI:0.00
PC:3c1f4     Total:1      MisBP:0   MisRate:0.00%    MPKI:0.00
PC:e28ae     Total:52      MisBP:0   MisRate:0.00%    MPKI:0.00
PC:e28ac     Total:52      MisBP:0   MisRate:0.00%    MPKI:0.00
PC:3c1f0     Total:1      MisBP:0   MisRate:0.00%    MPKI:0.00
PC:e28aa     Total:52      MisBP:0   MisRate:0.00%    MPKI:0.00
PC:e28a8     Total:52      MisBP:0   MisRate:0.00%    MPKI:0.00
PC:3b444     Total:206      MisBP:0   MisRate:0.00%    MPKI:0.00
PC:e28a6     Total:53      MisBP:0   MisRate:0.00%    MPKI:0.00
PC:e28a4     Total:83      MisBP:0   MisRate:0.00%    MPKI:0.00
PC:3c1e8     Total:233      MisBP:0   MisRate:0.00%    MPKI:0.00
PC:e28a2     Total:84      MisBP:0   MisRate:0.00%    MPKI:0.00
PC:e28a0     Total:84      MisBP:0   MisRate:0.00%    MPKI:0.00
PC:3c1e4     Total:3388      MisBP:0   MisRate:0.00%    MPKI:0.00
PC:e289e     Total:85      MisBP:0   MisRate:0.00%    MPKI:0.00
PC:3c1e2     Total:678      MisBP:0   MisRate:0.00%    MPKI:0.00
PC:e289c     Total:85      MisBP:0   MisRate:0.00%    MPKI:0.00
PC:3c1de     Total:447      MisBP:0   MisRate:0.00%    MPKI:0.00
PC:e2898     Total:85      MisBP:0   MisRate:0.00%    MPKI:0.00
PC:3c1dc     Total:3      MisBP:0   MisRate:0.00%    MPKI:0.00
PC:bf04e     Total:4899      MisBP:0   MisRate:0.00%    MPKI:0.00
PC:bb4a8     Total:1      MisBP:0   MisRate:0.00%    MPKI:0.00
PC:d3df4     Total:1      MisBP:0   MisRate:0.00%    MPKI:0.00
PC:b3d6a     Total:2648      MisBP:0   MisRate:0.00%    MPKI:0.00
PC:a4ca4     Total:31      MisBP:0   MisRate:0.00%    MPKI:0.00
PC:3c036     Total:10526      MisBP:0   MisRate:0.00%    MPKI:0.00
PC:bd2ce     Total:1646      MisBP:0   MisRate:0.00%    MPKI:0.00
PC:4dc3c     Total:3      MisBP:0   MisRate:0.00%    MPKI:0.00
PC:b8926     Total:1618      MisBP:0   MisRate:0.00%    MPKI:0.00
PC:45338     Total:1051      MisBP:0   MisRate:0.00%    MPKI:0.00
PC:53e18     Total:339      MisBP:0   MisRate:0.00%    MPKI:0.00
PC:bb276     Total:4039      MisBP:0   MisRate:0.00%    MPKI:0.00
PC:13274     Total:210      MisBP:0   MisRate:0.00%    MPKI:0.00
PC:4ba60     Total:608      MisBP:0   MisRate:0.00%    MPKI:0.00
PC:a73a0     Total:70      MisBP:0   MisRate:0.00%    MPKI:0.00
PC:bb6c6     Total:4004      MisBP:0   MisRate:0.00%    MPKI:0.00
PC:7f8ba     Total:2      MisBP:0   MisRate:0.00%    MPKI:0.00
PC:bb28a     Total:391      MisBP:0   MisRate:0.00%    MPKI:0.00
PC:13216     Total:218      MisBP:0   MisRate:0.00%    MPKI:0.00
PC:3b426     Total:327      MisBP:0   MisRate:0.00%    MPKI:0.00
PC:d47a6     Total:914      MisBP:0   MisRate:0.00%    MPKI:0.00
PC:a7554     Total:204      MisBP:0   MisRate:0.00%    MPKI:0.00
PC:45806     Total:1      MisBP:0   MisRate:0.00%    MPKI:0.00
PC:a4cec     Total:29      MisBP:0   MisRate:0.00%    MPKI:0.00
PC:7f938     Total:207      MisBP:0   MisRate:0.00%    MPKI:0.00
PC:bbc50     Total:1      MisBP:0   MisRate:0.00%    MPKI:0.00
PC:d6832     Total:252      MisBP:0   MisRate:0.00%    MPKI:0.00
PC:3cc74     Total:206      MisBP:0   MisRate:0.00%    MPKI:0.00
PC:c04ee     Total:2622      MisBP:0   MisRate:0.00%    MPKI:0.00
PC:13264     Total:424      MisBP:0   MisRate:0.00%    MPKI:0.00
PC:3b474     Total:852      MisBP:0   MisRate:0.00%    MPKI:0.00
PC:bb2d8     Total:3716      MisBP:0   MisRate:0.00%    MPKI:0.00
PC:d4422     Total:2      MisBP:0   MisRate:0.00%    MPKI:0.00
PC:53e1e     Total:339      MisBP:0   MisRate:0.00%    MPKI:0.00
PC:51660     Total:448      MisBP:0   MisRate:0.00%    MPKI:0.00
PC:be70c     Total:107      MisBP:0   MisRate:0.00%    MPKI:0.00
PC:3c058     Total:321      MisBP:0   MisRate:0.00%    MPKI:0.00
PC:7f9e2     Total:2      MisBP:0   MisRate:0.00%    MPKI:0.00
PC:bbcfa     Total:2      MisBP:0   MisRate:0.00%    MPKI:0.00
PC:bb3b2     Total:29      MisBP:0   MisRate:0.00%    MPKI:0.00
PC:bcdb0     Total:5419      MisBP:0   MisRate:0.00%    MPKI:0.00
PC:d5efa     Total:1      MisBP:0   MisRate:0.00%    MPKI:0.00
PC:ba2e6     Total:8      MisBP:0   MisRate:0.00%    MPKI:0.00
PC:a73a4     Total:70      MisBP:0   MisRate:0.00%    MPKI:0.00
PC:bb4ac     Total:1      MisBP:0   MisRate:0.00%    MPKI:0.00
PC:3df30     Total:30      MisBP:0   MisRate:0.00%    MPKI:0.00
PC:bb5a2     Total:4194      MisBP:0   MisRate:0.00%    MPKI:0.00
PC:d46ec     Total:1836      MisBP:0   MisRate:0.00%    MPKI:0.00
PC:7f9de     Total:2      MisBP:0   MisRate:0.00%    MPKI:0.00
PC:bbcf6     Total:1      MisBP:0   MisRate:0.00%    MPKI:0.00
PC:bb3ae     Total:29      MisBP:0   MisRate:0.00%    MPKI:0.00
PC:d3660     Total:172      MisBP:0   MisRate:0.00%    MPKI:0.00
PC:d5b34     Total:303      MisBP:0   MisRate:0.00%    MPKI:0.00
PC:7fb9e     Total:412      MisBP:0   MisRate:0.00%    MPKI:0.00
PC:c04ea     Total:2622      MisBP:0   MisRate:0.00%    MPKI:0.00
PC:d5aec     Total:1502      MisBP:0   MisRate:0.00%    MPKI:0.00
PC:bb346     Total:4333      MisBP:0   MisRate:0.00%    MPKI:0.00
PC:44756     Total:1      MisBP:0   MisRate:0.00%    MPKI:0.00
PC:bcd86     Total:6302      MisBP:0   MisRate:0.00%    MPKI:0.00
PC:d4862     Total:6132      MisBP:0   MisRate:0.00%    MPKI:0.00
PC:bb718     Total:3      MisBP:0   MisRate:0.00%    MPKI:0.00
PC:3f334     Total:4171      MisBP:0   MisRate:0.00%    MPKI:0.00
PC:d5f72     Total:1      MisBP:0   MisRate:0.00%    MPKI:0.00
PC:7f972     Total:307      MisBP:0   MisRate:0.00%    MPKI:0.00
PC:bb342     Total:4333      MisBP:0   MisRate:0.00%    MPKI:0.00
PC:44752     Total:1      MisBP:0   MisRate:0.00%    MPKI:0.00
PC:d485e     Total:6151      MisBP:0   MisRate:0.00%    MPKI:0.00
PC:bb714     Total:1      MisBP:0   MisRate:0.00%    MPKI:0.00
PC:3f330     Total:2491      MisBP:0   MisRate:0.00%    MPKI:0.00
PC:7f976     Total:307      MisBP:0   MisRate:0.00%    MPKI:0.00
PC:13270     Total:211      MisBP:0   MisRate:0.00%    MPKI:0.00
PC:7f914     Total:206      MisBP:0   MisRate:0.00%    MPKI:0.00
PC:7f8b8     Total:2      MisBP:0   MisRate:0.00%    MPKI:0.00
PC:bb288     Total:391      MisBP:0   MisRate:0.00%    MPKI:0.00
PC:13214     Total:34      MisBP:0   MisRate:0.00%    MPKI:0.00
PC:3b424     Total:999      MisBP:0   MisRate:0.00%    MPKI:0.00
PC:d47a4     Total:914      MisBP:0   MisRate:0.00%    MPKI:0.00
PC:457e4     Total:2239      MisBP:0   MisRate:0.00%    MPKI:0.00
PC:b894c     Total:2      MisBP:0   MisRate:0.00%    MPKI:0.00
PC:4535e     Total:1161      MisBP:0   MisRate:0.00%    MPKI:0.00
PC:d55a6     Total:2895      MisBP:0   MisRate:0.00%    MPKI:0.00
PC:bb272     Total:4040      MisBP:0   MisRate:0.00%    MPKI:0.00
PC:3cc9c     Total:212      MisBP:0   MisRate:0.00%    MPKI:0.00
PC:d687c     Total:1      MisBP:0   MisRate:0.00%    MPKI:0.00
PC:4e2a6     Total:575      MisBP:0   MisRate:0.00%    MPKI:0.00
PC:3f344     Total:6508      MisBP:0   MisRate:0.00%    MPKI:0.00
PC:d5b00     Total:1634      MisBP:0   MisRate:0.00%    MPKI:0.00
PC:457bc     Total:1821      MisBP:0   MisRate:0.00%    MPKI:0.00
PC:b3d68     Total:5296      MisBP:0   MisRate:0.00%    MPKI:0.00
PC:3c034     Total:358      MisBP:0   MisRate:0.00%    MPKI:0.00
PC:be6e8     Total:33244      MisBP:0   MisRate:0.00%    MPKI:0.00
PC:b8924     Total:1618      MisBP:0   MisRate:0.00%    MPKI:0.00
PC:130a2     Total:204      MisBP:0   MisRate:0.00%    MPKI:0.00
PC:d557e     Total:35      MisBP:0   MisRate:0.00%    MPKI:0.00
PC:53e16     Total:339      MisBP:0   MisRate:0.00%    MPKI:0.00
PC:46770     Total:204      MisBP:0   MisRate:0.00%    MPKI:0.00
PC:55836     Total:1561      MisBP:0   MisRate:0.00%    MPKI:0.00
PC:bee0a     Total:7297      MisBP:0   MisRate:0.00%    MPKI:0.00
PC:3b07e     Total:893      MisBP:0   MisRate:0.00%    MPKI:0.00
PC:a45e8     Total:411      MisBP:0   MisRate:0.00%    MPKI:0.00
PC:7f982     Total:205      MisBP:0   MisRate:0.00%    MPKI:0.00
PC:bb352     Total:857      MisBP:0   MisRate:0.00%    MPKI:0.00
PC:3f340     Total:6510      MisBP:0   MisRate:0.00%    MPKI:0.00
PC:3cc70     Total:1442      MisBP:0   MisRate:0.00%    MPKI:0.00
PC:ba2e2     Total:8      MisBP:0   MisRate:0.00%    MPKI:0.00
PC:4e2a2     Total:575      MisBP:0   MisRate:0.00%    MPKI:0.00
PC:a7556     Total:204      MisBP:0   MisRate:0.00%    MPKI:0.00
PC:d6870     Total:1      MisBP:0   MisRate:0.00%    MPKI:0.00
PC:3b072     Total:893      MisBP:0   MisRate:0.00%    MPKI:0.00
PC:a45dc     Total:411      MisBP:0   MisRate:0.00%    MPKI:0.00
PC:bff08     Total:3255      MisBP:0   MisRate:0.00%    MPKI:0.00
PC:d3d68     Total:192      MisBP:0   MisRate:0.00%    MPKI:0.00
PC:47630     Total:176      MisBP:0   MisRate:0.00%    MPKI:0.00
PC:5177a     Total:1198      MisBP:0   MisRate:0.00%    MPKI:0.00
PC:51778     Total:1198      MisBP:0   MisRate:0.00%    MPKI:0.00
PC:d5d16     Total:1123      MisBP:0   MisRate:0.00%    MPKI:0.00
PC:d5d02     Total:4077      MisBP:0   MisRate:0.00%    MPKI:0.00
PC:d5cfa     Total:4162      MisBP:0   MisRate:0.00%    MPKI:0.00
PC:7fba0     Total:2060      MisBP:0   MisRate:0.00%    MPKI:0.00
PC:bb570     Total:3805      MisBP:0   MisRate:0.00%    MPKI:0.00
PC:d5cf6     Total:4162      MisBP:0   MisRate:0.00%    MPKI:0.00
PC:3c4b6     Total:417      MisBP:0   MisRate:0.00%    MPKI:0.00
PC:bff0c     Total:1085      MisBP:0   MisRate:0.00%    MPKI:0.00
PC:2e792     Total:616      MisBP:0   MisRate:0.00%    MPKI:0.00
PC:566f6     Total:3      MisBP:0   MisRate:0.00%    MPKI:0.00
PC:2e78e     Total:616      MisBP:0   MisRate:0.00%    MPKI:0.00
PC:bb53e     Total:65      MisBP:0   MisRate:0.00%    MPKI:0.00
PC:bf03c     Total:2367      MisBP:0   MisRate:0.00%    MPKI:0.00
PC:e724c     Total:1      MisBP:0   MisRate:0.00%    MPKI:0.00
PC:3c36a     Total:14      MisBP:0   MisRate:0.00%    MPKI:0.00
PC:d3bb0     Total:3011      MisBP:0   MisRate:0.00%    MPKI:0.00
PC:7f9c6     Total:209      MisBP:0   MisRate:0.00%    MPKI:0.00
PC:bbcde     Total:2      MisBP:0   MisRate:0.00%    MPKI:0.00
PC:bb396     Total:31      MisBP:0   MisRate:0.00%    MPKI:0.00
PC:d3648     Total:1404      MisBP:0   MisRate:0.00%    MPKI:0.00
PC:4ba94     Total:1      MisBP:0   MisRate:0.00%    MPKI:0.00
PC:bf082     Total:1926      MisBP:0   MisRate:0.00%    MPKI:0.00
PC:4ba92     Total:1      MisBP:0   MisRate:0.00%    MPKI:0.00
PC:5178e     Total:1497      MisBP:0   MisRate:0.00%    MPKI:0.00
PC:d5d3a     Total:5      MisBP:0   MisRate:0.00%    MPKI:0.00
PC:14e36a     Total:3      MisBP:0   MisRate:0.00%    MPKI:0.00
PC:51798     Total:1497      MisBP:0   MisRate:0.00%    MPKI:0.00
PC:d5d36     Total:5      MisBP:0   MisRate:0.00%    MPKI:0.00
PC:14e366     Total:3      MisBP:0   MisRate:0.00%    MPKI:0.00
PC:51796     Total:1497      MisBP:0   MisRate:0.00%    MPKI:0.00
PC:d5d34     Total:9      MisBP:0   MisRate:0.00%    MPKI:0.00
PC:c1c2c     Total:2299      MisBP:0   MisRate:0.00%    MPKI:0.00
PC:14e364     Total:3      MisBP:0   MisRate:0.00%    MPKI:0.00
PC:51794     Total:1497      MisBP:0   MisRate:0.00%    MPKI:0.00
PC:51790     Total:1497      MisBP:0   MisRate:0.00%    MPKI:0.00
PC:d5d2e     Total:9      MisBP:0   MisRate:0.00%    MPKI:0.00
PC:14e35e     Total:3      MisBP:0   MisRate:0.00%    MPKI:0.00
PC:bf080     Total:5778      MisBP:0   MisRate:0.00%    MPKI:0.00
PC:5178a     Total:1497      MisBP:0   MisRate:0.00%    MPKI:0.00
PC:d5d26     Total:1      MisBP:0   MisRate:0.00%    MPKI:0.00
PC:566fe     Total:3      MisBP:0   MisRate:0.00%    MPKI:0.00
PC:d3d70     Total:188      MisBP:0   MisRate:0.00%    MPKI:0.00
PC:51782     Total:1198      MisBP:0   MisRate:0.00%    MPKI:0.00
PC:d5d20     Total:1      MisBP:0   MisRate:0.00%    MPKI:0.00
PC:c1c18     Total:4602      MisBP:0   MisRate:0.00%    MPKI:0.00
PC:566fa     Total:2      MisBP:0   MisRate:0.00%    MPKI:0.00
PC:d3d6c     Total:188      MisBP:0   MisRate:0.00%    MPKI:0.00
PC:47634     Total:176      MisBP:0   MisRate:0.00%    MPKI:0.00
PC:5177e     Total:1198      MisBP:0   MisRate:0.00%    MPKI:0.00
PC:d5d1a     Total:1123      MisBP:0   MisRate:0.00%    MPKI:0.00
PC:130c0     Total:373      MisBP:0   MisRate:0.00%    MPKI:0.00
PC:bb28e     Total:391      MisBP:0   MisRate:0.00%    MPKI:0.00
PC:d47aa     Total:914      MisBP:0   MisRate:0.00%    MPKI:0.00
PC:a7558     Total:204      MisBP:0   MisRate:0.00%    MPKI:0.00
PC:4ba62     Total:599      MisBP:0   MisRate:0.00%    MPKI:0.00
PC:bb6c8     Total:4004      MisBP:0   MisRate:0.00%    MPKI:0.00
PC:d4812     Total:4      MisBP:0   MisRate:0.00%    MPKI:0.00
PC:b76cc     Total:205      MisBP:0   MisRate:0.00%    MPKI:0.00
PC:bee06     Total:7297      MisBP:0   MisRate:0.00%    MPKI:0.00
PC:457da     Total:2744      MisBP:0   MisRate:0.00%    MPKI:0.00
[...]
PC:3aeca     Total:1709      MisBP:3   MisRate:0.18%    MPKI:0.00
PC:420ca     Total:791      MisBP:3   MisRate:0.38%    MPKI:0.00
PC:1332e     Total:3692      MisBP:3   MisRate:0.08%    MPKI:0.00
PC:3d39a     Total:218      MisBP:3   MisRate:1.38%    MPKI:0.00
PC:3df2a     Total:233      MisBP:3   MisRate:1.29%    MPKI:0.00
PC:beee6     Total:393      MisBP:3   MisRate:0.76%    MPKI:0.00
PC:bb584     Total:3687      MisBP:3   MisRate:0.08%    MPKI:0.00
PC:3ccf4     Total:232      MisBP:3   MisRate:1.29%    MPKI:0.00
PC:44     Total:0      MisBP:3   MisRate:inf%    MPKI:0.00
PC:c1c50     Total:27      MisBP:3   MisRate:11.11%    MPKI:0.00
PC:d4214     Total:843      MisBP:3   MisRate:0.36%    MPKI:0.00
PC:d417e     Total:2402      MisBP:3   MisRate:0.12%    MPKI:0.00
PC:d3bca     Total:2262      MisBP:3   MisRate:0.13%    MPKI:0.00
PC:47160     Total:70602      MisBP:3   MisRate:0.00%    MPKI:0.00
PC:3e1be     Total:310979      MisBP:3   MisRate:0.00%    MPKI:0.00
PC:46bda     Total:2118      MisBP:3   MisRate:0.14%    MPKI:0.00
PC:48     Total:0      MisBP:3   MisRate:inf%    MPKI:0.00
PC:b7680     Total:10188      MisBP:3   MisRate:0.03%    MPKI:0.00
PC:3ccfa     Total:1330      MisBP:3   MisRate:0.23%    MPKI:0.00
PC:a4722     Total:472      MisBP:4   MisRate:0.85%    MPKI:0.00
PC:26     Total:0      MisBP:4   MisRate:inf%    MPKI:0.00
PC:ba312     Total:38      MisBP:4   MisRate:10.53%    MPKI:0.00
PC:3c14a     Total:1647      MisBP:4   MisRate:0.24%    MPKI:0.00
PC:d4226     Total:10      MisBP:4   MisRate:40.00%    MPKI:0.00
PC:3c     Total:0      MisBP:4   MisRate:inf%    MPKI:0.00
PC:e2896     Total:85      MisBP:4   MisRate:4.71%    MPKI:0.00
PC:53e28     Total:992      MisBP:4   MisRate:0.40%    MPKI:0.00
PC:b697a     Total:240      MisBP:4   MisRate:1.67%    MPKI:0.00
PC:2e91e     Total:374      MisBP:4   MisRate:1.07%    MPKI:0.00
PC:40     Total:0      MisBP:4   MisRate:inf%    MPKI:0.00
PC:46baa     Total:315      MisBP:4   MisRate:1.27%    MPKI:0.00
PC:38     Total:0      MisBP:5   MisRate:inf%    MPKI:0.00
PC:b76a4     Total:1434      MisBP:5   MisRate:0.35%    MPKI:0.00
PC:30     Total:0      MisBP:5   MisRate:inf%    MPKI:0.00
PC:4e2b2     Total:535      MisBP:5   MisRate:0.93%    MPKI:0.00
PC:3a010     Total:854      MisBP:5   MisRate:0.59%    MPKI:0.00
PC:b7328     Total:339      MisBP:5   MisRate:1.47%    MPKI:0.00
PC:b7de6     Total:211      MisBP:5   MisRate:2.37%    MPKI:0.00
PC:34     Total:0      MisBP:5   MisRate:inf%    MPKI:0.00
PC:3e198     Total:84564      MisBP:5   MisRate:0.01%    MPKI:0.00
PC:4e2b4     Total:823      MisBP:5   MisRate:0.61%    MPKI:0.00
PC:d3bae     Total:853      MisBP:5   MisRate:0.59%    MPKI:0.00
PC:1e     Total:0      MisBP:6   MisRate:inf%    MPKI:0.00
PC:b76b6     Total:745      MisBP:6   MisRate:0.81%    MPKI:0.00
PC:d41a6     Total:2693      MisBP:6   MisRate:0.22%    MPKI:0.00
PC:3c358     Total:577      MisBP:6   MisRate:1.04%    MPKI:0.00
PC:22     Total:0      MisBP:6   MisRate:inf%    MPKI:0.00
PC:4219e     Total:611      MisBP:6   MisRate:0.98%    MPKI:0.00
PC:4741a     Total:521      MisBP:6   MisRate:1.15%    MPKI:0.00
PC:3ac32     Total:1005      MisBP:6   MisRate:0.60%    MPKI:0.00
PC:465de     Total:490      MisBP:6   MisRate:1.22%    MPKI:0.00
PC:3b06e     Total:902      MisBP:6   MisRate:0.67%    MPKI:0.00
PC:b78ee     Total:990      MisBP:6   MisRate:0.61%    MPKI:0.00
PC:a4c68     Total:35      MisBP:6   MisRate:17.14%    MPKI:0.00
PC:ba3de     Total:42      MisBP:6   MisRate:14.29%    MPKI:0.00
PC:c052c     Total:2606      MisBP:6   MisRate:0.23%    MPKI:0.00
PC:e434e     Total:626      MisBP:7   MisRate:1.12%    MPKI:0.00
PC:d4702     Total:1464      MisBP:7   MisRate:0.48%    MPKI:0.00
PC:46bbc     Total:316      MisBP:7   MisRate:2.22%    MPKI:0.00
PC:1a     Total:0      MisBP:7   MisRate:inf%    MPKI:0.00
PC:d3d86     Total:168      MisBP:7   MisRate:4.17%    MPKI:0.00
PC:457be     Total:1821      MisBP:7   MisRate:0.38%    MPKI:0.00
PC:c0462     Total:356      MisBP:7   MisRate:1.97%    MPKI:0.00
PC:3ac16     Total:818      MisBP:7   MisRate:0.86%    MPKI:0.00
PC:3b428     Total:327      MisBP:7   MisRate:2.14%    MPKI:0.00
PC:2c     Total:0      MisBP:8   MisRate:inf%    MPKI:0.00
PC:28     Total:0      MisBP:8   MisRate:inf%    MPKI:0.00
PC:16     Total:0      MisBP:8   MisRate:inf%    MPKI:0.00
PC:d46f6     Total:1836      MisBP:8   MisRate:0.44%    MPKI:0.00
PC:c0520     Total:2815      MisBP:8   MisRate:0.28%    MPKI:0.00
PC:a4502     Total:300      MisBP:8   MisRate:2.67%    MPKI:0.00
PC:b78d8     Total:207      MisBP:8   MisRate:3.86%    MPKI:0.00
PC:3b47c     Total:852      MisBP:9   MisRate:1.06%    MPKI:0.00
PC:45936     Total:733      MisBP:9   MisRate:1.23%    MPKI:0.00
PC:a46c0     Total:466      MisBP:9   MisRate:1.93%    MPKI:0.00
PC:d4838     Total:2718      MisBP:9   MisRate:0.33%    MPKI:0.00
PC:4ba76     Total:575      MisBP:9   MisRate:1.57%    MPKI:0.00
PC:bf7b8     Total:867      MisBP:9   MisRate:1.04%    MPKI:0.00
PC:457d8     Total:2871      MisBP:9   MisRate:0.31%    MPKI:0.00
PC:bf7aa     Total:717      MisBP:9   MisRate:1.26%    MPKI:0.00
PC:d46c0     Total:388      MisBP:9   MisRate:2.32%    MPKI:0.00
PC:b69de     Total:360      MisBP:9   MisRate:2.50%    MPKI:0.00
PC:3c34a     Total:597      MisBP:10   MisRate:1.68%    MPKI:0.00
PC:e     Total:0      MisBP:10   MisRate:inf%    MPKI:0.00
PC:12     Total:0      MisBP:10   MisRate:inf%    MPKI:0.00
PC:3b084     Total:875      MisBP:10   MisRate:1.14%    MPKI:0.00
PC:c055a     Total:13412      MisBP:10   MisRate:0.07%    MPKI:0.00
PC:3e080     Total:440121      MisBP:10   MisRate:0.00%    MPKI:0.00
PC:3c00a     Total:10572      MisBP:11   MisRate:0.10%    MPKI:0.00
PC:a     Total:0      MisBP:11   MisRate:inf%    MPKI:0.00
PC:24     Total:0      MisBP:11   MisRate:inf%    MPKI:0.00
PC:beece     Total:48      MisBP:11   MisRate:22.92%    MPKI:0.00
PC:3bfd0     Total:1724      MisBP:11   MisRate:0.64%    MPKI:0.00
PC:10158     Total:5733      MisBP:11   MisRate:0.19%    MPKI:0.00
PC:4531e     Total:960      MisBP:12   MisRate:1.25%    MPKI:0.00
PC:bb38c     Total:3966      MisBP:12   MisRate:0.30%    MPKI:0.00
PC:d4884     Total:4362      MisBP:13   MisRate:0.30%    MPKI:0.00
PC:45906     Total:10789      MisBP:13   MisRate:0.12%    MPKI:0.00
PC:bb5a8     Total:4193      MisBP:13   MisRate:0.31%    MPKI:0.00
PC:20     Total:0      MisBP:14   MisRate:inf%    MPKI:0.00
PC:4e292     Total:181      MisBP:14   MisRate:7.73%    MPKI:0.00
PC:475ca     Total:344      MisBP:14   MisRate:4.07%    MPKI:0.00
PC:b69a4     Total:1894      MisBP:15   MisRate:0.79%    MPKI:0.00
PC:b76fc     Total:839      MisBP:15   MisRate:1.79%    MPKI:0.00
PC:3e0f0     Total:221229      MisBP:15   MisRate:0.01%    MPKI:0.00
PC:47604     Total:4108      MisBP:15   MisRate:0.37%    MPKI:0.00
PC:51682     Total:2054      MisBP:16   MisRate:0.78%    MPKI:0.00
PC:6     Total:0      MisBP:16   MisRate:inf%    MPKI:0.00
PC:4bb00     Total:348      MisBP:16   MisRate:4.60%    MPKI:0.00
PC:d3b92     Total:2706      MisBP:16   MisRate:0.59%    MPKI:0.00
PC:3c140     Total:1847      MisBP:16   MisRate:0.87%    MPKI:0.00
PC:4dc6c     Total:709      MisBP:17   MisRate:2.40%    MPKI:0.00
PC:45a8a     Total:204      MisBP:17   MisRate:8.33%    MPKI:0.00
PC:473a4     Total:461      MisBP:17   MisRate:3.69%    MPKI:0.00
PC:18     Total:0      MisBP:17   MisRate:inf%    MPKI:0.00
PC:2     Total:0      MisBP:17   MisRate:inf%    MPKI:0.00
PC:1c     Total:0      MisBP:17   MisRate:inf%    MPKI:0.00
PC:bd26a     Total:2497      MisBP:19   MisRate:0.76%    MPKI:0.00
PC:14     Total:0      MisBP:19   MisRate:inf%    MPKI:0.00
PC:d488e     Total:4399      MisBP:20   MisRate:0.45%    MPKI:0.00
PC:10     Total:0      MisBP:20   MisRate:inf%    MPKI:0.00
PC:c     Total:0      MisBP:21   MisRate:inf%    MPKI:0.00
PC:4b420     Total:668      MisBP:21   MisRate:3.14%    MPKI:0.00
PC:45318     Total:2111      MisBP:21   MisRate:0.99%    MPKI:0.00
PC:d46b8     Total:444      MisBP:23   MisRate:5.18%    MPKI:0.00
PC:be6fa     Total:2478      MisBP:23   MisRate:0.93%    MPKI:0.00
PC:3aeb8     Total:2190      MisBP:23   MisRate:1.05%    MPKI:0.00
PC:3e1ec     Total:3470      MisBP:24   MisRate:0.69%    MPKI:0.00
PC:d606e     Total:2657      MisBP:25   MisRate:0.94%    MPKI:0.00
PC:4763a     Total:176      MisBP:25   MisRate:14.20%    MPKI:0.00
PC:bf186     Total:717      MisBP:25   MisRate:3.49%    MPKI:0.00
PC:4     Total:0      MisBP:27   MisRate:inf%    MPKI:0.00
PC:d3d56     Total:3902      MisBP:27   MisRate:0.69%    MPKI:0.00
PC:8     Total:0      MisBP:27   MisRate:inf%    MPKI:0.00
PC:0     Total:0      MisBP:28   MisRate:inf%    MPKI:0.00
PC:a4b78     Total:35      MisBP:28   MisRate:80.00%    MPKI:0.00
PC:c1bc8     Total:1756      MisBP:28   MisRate:1.59%    MPKI:0.00
PC:d4750     Total:46      MisBP:30   MisRate:65.22%    MPKI:0.00
PC:c0450     Total:361      MisBP:31   MisRate:8.59%    MPKI:0.00
PC:e3526     Total:2870      MisBP:31   MisRate:1.08%    MPKI:0.00
PC:c0556     Total:14196      MisBP:31   MisRate:0.22%    MPKI:0.00
PC:45948     Total:306      MisBP:31   MisRate:10.13%    MPKI:0.00
PC:46528     Total:550      MisBP:31   MisRate:5.64%    MPKI:0.00
PC:e34de     Total:295      MisBP:33   MisRate:11.19%    MPKI:0.00
PC:13212     Total:219      MisBP:33   MisRate:15.07%    MPKI:0.00
PC:5165c     Total:448      MisBP:34   MisRate:7.59%    MPKI:0.00
PC:d47ec     Total:3401      MisBP:34   MisRate:1.00%    MPKI:0.00
PC:b6960     Total:206      MisBP:34   MisRate:16.50%    MPKI:0.00
PC:a451c     Total:308      MisBP:35   MisRate:11.36%    MPKI:0.00
PC:4b426     Total:924      MisBP:35   MisRate:3.79%    MPKI:0.00
PC:bea10     Total:1391      MisBP:35   MisRate:2.52%    MPKI:0.00
PC:a466a     Total:405      MisBP:35   MisRate:8.64%    MPKI:0.00
PC:d3b40     Total:2262      MisBP:37   MisRate:1.64%    MPKI:0.00
PC:b878a     Total:292      MisBP:38   MisRate:13.01%    MPKI:0.00
PC:d3ba2     Total:2991      MisBP:39   MisRate:1.30%    MPKI:0.00
PC:d474c     Total:1638      MisBP:43   MisRate:2.63%    MPKI:0.00
PC:458fc     Total:1468      MisBP:45   MisRate:3.07%    MPKI:0.00
PC:d3d32     Total:3856      MisBP:46   MisRate:1.19%    MPKI:0.00
PC:bb53c     Total:3690      MisBP:46   MisRate:1.25%    MPKI:0.00
PC:4e2bc     Total:3288      MisBP:47   MisRate:1.43%    MPKI:0.00
PC:b87a6     Total:41857      MisBP:47   MisRate:0.11%    MPKI:0.00
PC:d418a     Total:2485      MisBP:48   MisRate:1.93%    MPKI:0.00
PC:4badc     Total:1194      MisBP:51   MisRate:4.27%    MPKI:0.00
PC:b764a     Total:2614      MisBP:51   MisRate:1.95%    MPKI:0.00
PC:be728     Total:106      MisBP:52   MisRate:49.06%    MPKI:0.00
PC:d46aa     Total:454      MisBP:54   MisRate:11.89%    MPKI:0.00
PC:2e80e     Total:3688      MisBP:54   MisRate:1.46%    MPKI:0.00
PC:be788     Total:12730      MisBP:55   MisRate:0.43%    MPKI:0.00
PC:bb592     Total:46165      MisBP:56   MisRate:0.12%    MPKI:0.00
PC:2e7dc     Total:2975      MisBP:59   MisRate:1.98%    MPKI:0.00
PC:458f8     Total:1395      MisBP:60   MisRate:4.30%    MPKI:0.00
PC:d3b9c     Total:3303      MisBP:63   MisRate:1.91%    MPKI:0.00
PC:51658     Total:1887      MisBP:68   MisRate:3.60%    MPKI:0.00
PC:3c040     Total:9827      MisBP:68   MisRate:0.69%    MPKI:0.00
PC:bd276     Total:2487      MisBP:68   MisRate:2.73%    MPKI:0.00
PC:c04c6     Total:7670      MisBP:71   MisRate:0.93%    MPKI:0.00
PC:2e81e     Total:3621      MisBP:72   MisRate:1.99%    MPKI:0.00
PC:3f33a     Total:4168      MisBP:73   MisRate:1.75%    MPKI:0.00
PC:bb204     Total:5125      MisBP:74   MisRate:1.44%    MPKI:0.00
PC:be9f4     Total:2997      MisBP:75   MisRate:2.50%    MPKI:0.00
PC:45a96     Total:965      MisBP:76   MisRate:7.88%    MPKI:0.00
PC:e34da     Total:295      MisBP:79   MisRate:26.78%    MPKI:0.00
PC:3f422     Total:601      MisBP:84   MisRate:13.98%    MPKI:0.00
PC:d3d90     Total:175      MisBP:85   MisRate:48.57%    MPKI:0.00
PC:51774     Total:1202      MisBP:85   MisRate:7.07%    MPKI:0.00
PC:475ea     Total:1931      MisBP:87   MisRate:4.51%    MPKI:0.00
PC:d5d0c     Total:4076      MisBP:89   MisRate:2.18%    MPKI:0.00
PC:d6072     Total:4631      MisBP:93   MisRate:2.01%    MPKI:0.00
PC:bf7c2     Total:886      MisBP:94   MisRate:10.61%    MPKI:0.00
PC:475fe     Total:2212      MisBP:98   MisRate:4.43%    MPKI:0.00
PC:d36be     Total:1901      MisBP:100   MisRate:5.26%    MPKI:0.00
PC:a467e     Total:439      MisBP:102   MisRate:23.23%    MPKI:0.00
PC:b72e8     Total:516      MisBP:105   MisRate:20.35%    MPKI:0.00
PC:46702     Total:709      MisBP:108   MisRate:15.23%    MPKI:0.00
PC:b8742     Total:6851      MisBP:113   MisRate:1.65%    MPKI:0.00
PC:a454c     Total:295      MisBP:117   MisRate:39.66%    MPKI:0.00
PC:a46ac     Total:350      MisBP:123   MisRate:35.14%    MPKI:0.00
PC:bea32     Total:1927      MisBP:123   MisRate:6.38%    MPKI:0.00
PC:3e1d8     Total:55627      MisBP:128   MisRate:0.23%    MPKI:0.00
PC:d46fc     Total:1835      MisBP:132   MisRate:7.19%    MPKI:0.00
PC:b8762     Total:5360      MisBP:133   MisRate:2.48%    MPKI:0.00
PC:3c118     Total:1141      MisBP:136   MisRate:11.92%    MPKI:0.00
PC:e4356     Total:24855      MisBP:137   MisRate:0.55%    MPKI:0.00
PC:45d26     Total:609      MisBP:139   MisRate:22.82%    MPKI:0.00
PC:45aa4     Total:685      MisBP:141   MisRate:20.58%    MPKI:0.00
PC:3e08e     Total:440121      MisBP:142   MisRate:0.03%    MPKI:0.00
PC:465be     Total:276      MisBP:148   MisRate:53.62%    MPKI:0.00
PC:3f45a     Total:4030      MisBP:152   MisRate:3.77%    MPKI:0.00
PC:d4796     Total:3114      MisBP:157   MisRate:5.04%    MPKI:0.00
PC:d483c     Total:3162      MisBP:160   MisRate:5.06%    MPKI:0.00
PC:475dc     Total:1963      MisBP:162   MisRate:8.25%    MPKI:0.00
PC:d3654     Total:1404      MisBP:166   MisRate:11.82%    MPKI:0.00
PC:4baee     Total:1443      MisBP:167   MisRate:11.57%    MPKI:0.00
PC:bf058     Total:4831      MisBP:169   MisRate:3.50%    MPKI:0.00
PC:2e7ea     Total:6283      MisBP:171   MisRate:2.72%    MPKI:0.00
PC:51664     Total:448      MisBP:178   MisRate:39.73%    MPKI:0.00
PC:bedd8     Total:10161      MisBP:183   MisRate:1.80%    MPKI:0.00
PC:bb1f2     Total:5933      MisBP:191   MisRate:3.22%    MPKI:0.00
PC:3e1aa     Total:91021      MisBP:194   MisRate:0.21%    MPKI:0.00
PC:2e84c     Total:704      MisBP:195   MisRate:27.70%    MPKI:0.00
PC:a732a     Total:394      MisBP:204   MisRate:51.78%    MPKI:0.00
PC:44762     Total:392      MisBP:204   MisRate:52.04%    MPKI:0.00
PC:a7324     Total:501      MisBP:204   MisRate:40.72%    MPKI:0.00
PC:41dc4     Total:1227      MisBP:204   MisRate:16.63%    MPKI:0.00
PC:45ac6     Total:310      MisBP:205   MisRate:66.13%    MPKI:0.00
PC:13326     Total:386      MisBP:205   MisRate:53.11%    MPKI:0.00
PC:c04d4     Total:5251      MisBP:205   MisRate:3.90%    MPKI:0.00
PC:b877c     Total:8624      MisBP:205   MisRate:2.38%    MPKI:0.00
PC:7fb7c     Total:208      MisBP:206   MisRate:99.04%    MPKI:0.00
PC:41dce     Total:1226      MisBP:206   MisRate:16.80%    MPKI:0.00
PC:d5ac6     Total:1399      MisBP:228   MisRate:16.30%    MPKI:0.00
PC:465b0     Total:288      MisBP:229   MisRate:79.51%    MPKI:0.00
PC:4a5b2     Total:75528      MisBP:235   MisRate:0.31%    MPKI:0.00
PC:d682a     Total:1663      MisBP:240   MisRate:14.43%    MPKI:0.00
PC:bf044     Total:5000      MisBP:245   MisRate:4.90%    MPKI:0.00
PC:c045c     Total:3638      MisBP:252   MisRate:6.93%    MPKI:0.00
PC:d3b7c     Total:2458      MisBP:255   MisRate:10.37%    MPKI:0.00
PC:babc8     Total:1530      MisBP:257   MisRate:16.80%    MPKI:0.00
PC:b8760     Total:5407      MisBP:262   MisRate:4.85%    MPKI:0.00
PC:bf04c     Total:4899      MisBP:264   MisRate:5.39%    MPKI:0.00
PC:3bfc0     Total:5927      MisBP:283   MisRate:4.77%    MPKI:0.00
PC:45e68     Total:3890      MisBP:289   MisRate:7.43%    MPKI:0.00
PC:3e0e6     Total:268445      MisBP:296   MisRate:0.11%    MPKI:0.00
PC:be762     Total:15498      MisBP:305   MisRate:1.97%    MPKI:0.00
PC:3e1a0     Total:83892      MisBP:331   MisRate:0.39%    MPKI:0.00
PC:2e82a     Total:3490      MisBP:338   MisRate:9.68%    MPKI:0.00
PC:3bfdc     Total:36786      MisBP:341   MisRate:0.93%    MPKI:0.00
PC:bb2aa     Total:390      MisBP:362   MisRate:92.82%    MPKI:0.00
PC:bb27a     Total:4038      MisBP:370   MisRate:9.16%    MPKI:0.00
PC:2e848     Total:3477      MisBP:380   MisRate:10.93%    MPKI:0.00
PC:bee1a     Total:7231      MisBP:394   MisRate:5.45%    MPKI:0.00
PC:b770a     Total:13000      MisBP:396   MisRate:3.05%    MPKI:0.00
PC:457b8     Total:1925      MisBP:397   MisRate:20.62%    MPKI:0.00
PC:be812     Total:2661      MisBP:400   MisRate:15.03%    MPKI:0.00
PC:bee54     Total:1994      MisBP:407   MisRate:20.41%    MPKI:0.00
PC:4baba     Total:551      MisBP:408   MisRate:74.05%    MPKI:0.00
PC:bbaba     Total:4088      MisBP:409   MisRate:10.00%    MPKI:0.00
PC:3c02e     Total:4782      MisBP:433   MisRate:9.05%    MPKI:0.00
PC:d4768     Total:1843      MisBP:442   MisRate:23.98%    MPKI:0.00
PC:c04e2     Total:5214      MisBP:451   MisRate:8.65%    MPKI:0.00
PC:be622     Total:4478      MisBP:454   MisRate:10.14%    MPKI:0.00
PC:4713e     Total:18143419      MisBP:474   MisRate:0.00%    MPKI:0.00
PC:d479e     Total:954      MisBP:492   MisRate:51.57%    MPKI:0.00
PC:3c000     Total:13062      MisBP:496   MisRate:3.80%    MPKI:0.00
PC:bea58     Total:3542      MisBP:564   MisRate:15.92%    MPKI:0.00
PC:e4366     Total:10946      MisBP:566   MisRate:5.17%    MPKI:0.00
PC:bee34     Total:4336      MisBP:603   MisRate:13.91%    MPKI:0.00
PC:3c018     Total:9599      MisBP:616   MisRate:6.42%    MPKI:0.00
PC:2e7fe     Total:3296      MisBP:618   MisRate:18.75%    MPKI:0.00
PC:c1bd4     Total:1755      MisBP:619   MisRate:35.27%    MPKI:0.00
PC:c04e8     Total:6337      MisBP:652   MisRate:10.29%    MPKI:0.00
PC:bf068     Total:6159      MisBP:690   MisRate:11.20%    MPKI:0.00
PC:bb2be     Total:754      MisBP:696   MisRate:92.31%    MPKI:0.00
PC:d479a     Total:2646      MisBP:830   MisRate:31.37%    MPKI:0.00
PC:d52d0     Total:1580      MisBP:868   MisRate:54.94%    MPKI:0.00
PC:be7fa     Total:4493      MisBP:917   MisRate:20.41%    MPKI:0.00
PC:47154     Total:18165789      MisBP:921   MisRate:0.01%    MPKI:0.00
PC:bee00     Total:10612      MisBP:998   MisRate:9.40%    MPKI:0.00
PC:d4770     Total:2111      MisBP:1059   MisRate:50.17%    MPKI:0.00
PC:be6f0     Total:33237      MisBP:1069   MisRate:3.22%    MPKI:0.00
PC:473b6     Total:70605      MisBP:1098   MisRate:1.56%    MPKI:0.00
PC:3bfec     Total:46519      MisBP:1110   MisRate:2.39%    MPKI:0.00
PC:3f350     Total:7055      MisBP:1437   MisRate:20.37%    MPKI:0.00
PC:be754     Total:31396      MisBP:1480   MisRate:4.71%    MPKI:0.00
PC:2e7f2     Total:8708      MisBP:1636   MisRate:18.79%    MPKI:0.01
PC:3e1d2     Total:57421      MisBP:1684   MisRate:2.93%    MPKI:0.01
PC:bf07e     Total:1671625      MisBP:1909   MisRate:0.11%    MPKI:0.01
PC:3e12e     Total:267913      MisBP:2785   MisRate:1.04%    MPKI:0.01
PC:be9f0     Total:39926      MisBP:2890   MisRate:7.24%    MPKI:0.01
PC:be6da     Total:94165      MisBP:3427   MisRate:3.64%    MPKI:0.01
PC:3e1c4     Total:308834      MisBP:3451   MisRate:1.12%    MPKI:0.01
PC:b8772     Total:18449      MisBP:3801   MisRate:20.60%    MPKI:0.01
PC:e435e     Total:34779      MisBP:5008   MisRate:14.40%    MPKI:0.02
PC:3e168     Total:54758      MisBP:5454   MisRate:9.96%    MPKI:0.02
PC:bb598     Total:49733      MisBP:8977   MisRate:18.05%    MPKI:0.03
PC:3e1e0     Total:352269      MisBP:9040   MisRate:2.57%    MPKI:0.03
PC:3e0e8     Total:266971      MisBP:12563   MisRate:4.71%    MPKI:0.04
PC:4715c     Total:18163126      MisBP:54520   MisRate:0.30%    MPKI:0.18
Totfetch:327839926  TotInsts:310000001  TotMis : inf%   MPKI : 0.51
=============finish sim!!!!!!=============
Done running SimPoint!
