Global frequency set at 1000000000000 ticks per second
 Register [printBranch()] ExitCallback !!!!!!! 
gem5 Simulator System.  https://www.gem5.org
gem5 is copyrighted software; use the --copyright option for details.

gem5 version 22.0.0.2
gem5 compiled Sep  7 2022 00:42:18
gem5 started Sep  7 2022 03:56:18
gem5 executing on a100, pid 2772709
command line: /data/zxf/gem5/gem5-prof/build/ARM/gem5.fast --outdir=/data/zxf/checkpoint/spec2006/445.gobmk/prof/gobmk_ckp_8 /data/zxf/gem5/gem5-prof/configs/example/se.py --cpu-type O3CPU --cpu-clock 1GHz --num-cpu 1 --caches --l2cache --l1i_size 32kB --l1d_size 32kB --l2_size 1MB --l1i_assoc 8 --l1d_assoc 8 --l2_assoc 16 --cacheline_size 64 --mem-type DDR3_2133_8x8 --mem-size 16GB --l1d-hwp-type=BOPPrefetcher --restore-simpoint-checkpoint -r 8 --checkpoint-dir /data/zxf/checkpoint/spec2006/445.gobmk/ckpt -i 13x13.tst -c gobmk_base.gcc41-64bit -o '--quiet --mode gtp'

info: Standard input is not a terminal, disabling listeners.
Resuming from /data/zxf/checkpoint/spec2006/445.gobmk/ckpt/cpt.simpoint_07_inst_157790000000_weight_0.068584_interval_300000000_warmup_10000000
Resuming from SimPoint #7, start_inst:157790000000, weight:0.068584, interval:300000000, warmup:10000000
Switch at curTick count:10000
Switched CPUS @ tick 106718696436500
[(<m5.objects.ArmCPU.ArmAtomicSimpleCPU object at 0x7fe03cc30bb0>, <m5.objects.ArmCPU.ArmO3CPU object at 0x7fe03cc49e20>)]
switching cpus



+++++++++++++++++++++++++zxf print simpoint+++++++++++++++++++++++++++
Warmed up! Dumping and resetting stats!


=============start sim!!!!!!=============
PC:18da4     Total:12      MisBP:0   MisRate:0.00%    MPKI:0.00
PC:2d616     Total:514      MisBP:0   MisRate:0.00%    MPKI:0.00
PC:2da48     Total:94      MisBP:0   MisRate:0.00%    MPKI:0.00
PC:422be     Total:111      MisBP:0   MisRate:0.00%    MPKI:0.00
PC:191d2     Total:625      MisBP:0   MisRate:0.00%    MPKI:0.00
PC:176c0     Total:105766      MisBP:0   MisRate:0.00%    MPKI:0.00
PC:3ca1c     Total:199619      MisBP:0   MisRate:0.00%    MPKI:0.00
PC:3ce4e     Total:12470      MisBP:0   MisRate:0.00%    MPKI:0.00
PC:285d8     Total:13353      MisBP:0   MisRate:0.00%    MPKI:0.00
PC:41a5e     Total:2309      MisBP:0   MisRate:0.00%    MPKI:0.00
PC:41e8c     Total:5085      MisBP:0   MisRate:0.00%    MPKI:0.00
PC:41e90     Total:5160      MisBP:0   MisRate:0.00%    MPKI:0.00
PC:2d61a     Total:257      MisBP:0   MisRate:0.00%    MPKI:0.00
PC:2da4c     Total:94      MisBP:0   MisRate:0.00%    MPKI:0.00
PC:191d6     Total:625      MisBP:0   MisRate:0.00%    MPKI:0.00
PC:3dfee     Total:9      MisBP:0   MisRate:0.00%    MPKI:0.00
PC:14f02     Total:41290      MisBP:0   MisRate:0.00%    MPKI:0.00
PC:1bf98     Total:177329      MisBP:0   MisRate:0.00%    MPKI:0.00
PC:3080e     Total:945      MisBP:0   MisRate:0.00%    MPKI:0.00
PC:14efc     Total:44959      MisBP:0   MisRate:0.00%    MPKI:0.00
PC:327f2     Total:141      MisBP:0   MisRate:0.00%    MPKI:0.00
PC:41a56     Total:2309      MisBP:0   MisRate:0.00%    MPKI:0.00
PC:18d9c     Total:13      MisBP:0   MisRate:0.00%    MPKI:0.00
PC:41e88     Total:5048      MisBP:0   MisRate:0.00%    MPKI:0.00
PC:2d612     Total:268      MisBP:0   MisRate:0.00%    MPKI:0.00
PC:2da44     Total:21      MisBP:0   MisRate:0.00%    MPKI:0.00
PC:422ba     Total:123      MisBP:0   MisRate:0.00%    MPKI:0.00
PC:191ce     Total:625      MisBP:0   MisRate:0.00%    MPKI:0.00
PC:7b94a     Total:162      MisBP:0   MisRate:0.00%    MPKI:0.00
PC:3dff2     Total:9      MisBP:0   MisRate:0.00%    MPKI:0.00
PC:47dd8     Total:1615      MisBP:0   MisRate:0.00%    MPKI:0.00
PC:33562     Total:1189      MisBP:0   MisRate:0.00%    MPKI:0.00
PC:3ca18     Total:199773      MisBP:0   MisRate:0.00%    MPKI:0.00
PC:285d4     Total:13354      MisBP:0   MisRate:0.00%    MPKI:0.00
PC:99244     Total:172      MisBP:0   MisRate:0.00%    MPKI:0.00
PC:327f6     Total:141      MisBP:0   MisRate:0.00%    MPKI:0.00
PC:41a5a     Total:2309      MisBP:0   MisRate:0.00%    MPKI:0.00
PC:18da0     Total:12      MisBP:0   MisRate:0.00%    MPKI:0.00
PC:30832     Total:714      MisBP:0   MisRate:0.00%    MPKI:0.00
PC:7b96a     Total:159      MisBP:0   MisRate:0.00%    MPKI:0.00
PC:14f1c     Total:165920      MisBP:0   MisRate:0.00%    MPKI:0.00
PC:407cc     Total:11032      MisBP:0   MisRate:0.00%    MPKI:0.00
PC:176e0     Total:81517      MisBP:0   MisRate:0.00%    MPKI:0.00
PC:7b970     Total:159      MisBP:0   MisRate:0.00%    MPKI:0.00
PC:3e00e     Total:70      MisBP:0   MisRate:0.00%    MPKI:0.00
PC:14f22     Total:165918      MisBP:0   MisRate:0.00%    MPKI:0.00
PC:407d0     Total:30178      MisBP:0   MisRate:0.00%    MPKI:0.00
PC:176e4     Total:81513      MisBP:0   MisRate:0.00%    MPKI:0.00
PC:176da     Total:81518      MisBP:0   MisRate:0.00%    MPKI:0.00
PC:3f2033fc     Total:1      MisBP:0   MisRate:0.00%    MPKI:0.00
PC:407dc     Total:40227      MisBP:0   MisRate:0.00%    MPKI:0.00
PC:176f0     Total:163021      MisBP:0   MisRate:0.00%    MPKI:0.00
PC:3ff78     Total:9822      MisBP:0   MisRate:0.00%    MPKI:0.00
PC:3f203400     Total:1      MisBP:0   MisRate:0.00%    MPKI:0.00
PC:407e0     Total:40220      MisBP:0   MisRate:0.00%    MPKI:0.00
PC:3ff7c     Total:9822      MisBP:0   MisRate:0.00%    MPKI:0.00
PC:7b984     Total:23      MisBP:0   MisRate:0.00%    MPKI:0.00
PC:3dffc     Total:8      MisBP:0   MisRate:0.00%    MPKI:0.00
PC:14f06     Total:41290      MisBP:0   MisRate:0.00%    MPKI:0.00
PC:47de2     Total:807      MisBP:0   MisRate:0.00%    MPKI:0.00
PC:3356c     Total:478      MisBP:0   MisRate:0.00%    MPKI:0.00
PC:30814     Total:944      MisBP:0   MisRate:0.00%    MPKI:0.00
PC:407b6     Total:11668      MisBP:0   MisRate:0.00%    MPKI:0.00
PC:176ca     Total:82385      MisBP:0   MisRate:0.00%    MPKI:0.00
PC:14f0c     Total:41289      MisBP:0   MisRate:0.00%    MPKI:0.00
PC:33572     Total:459      MisBP:0   MisRate:0.00%    MPKI:0.00
PC:99240     Total:172      MisBP:0   MisRate:0.00%    MPKI:0.00
PC:14f10     Total:41289      MisBP:0   MisRate:0.00%    MPKI:0.00
PC:47dec     Total:343      MisBP:0   MisRate:0.00%    MPKI:0.00
PC:33576     Total:458      MisBP:0   MisRate:0.00%    MPKI:0.00
PC:176d6     Total:82384      MisBP:0   MisRate:0.00%    MPKI:0.00
PC:3e004     Total:1      MisBP:0   MisRate:0.00%    MPKI:0.00
PC:14f18     Total:41289      MisBP:0   MisRate:0.00%    MPKI:0.00
PC:47df4     Total:32      MisBP:0   MisRate:0.00%    MPKI:0.00
PC:3357e     Total:451      MisBP:0   MisRate:0.00%    MPKI:0.00
PC:1769e     Total:74534      MisBP:0   MisRate:0.00%    MPKI:0.00
PC:3dfc2     Total:89      MisBP:0   MisRate:0.00%    MPKI:0.00
PC:14ed6     Total:53960      MisBP:0   MisRate:0.00%    MPKI:0.00
PC:7bbc6     Total:709      MisBP:0   MisRate:0.00%    MPKI:0.00
PC:3f75e     Total:19693      MisBP:0   MisRate:0.00%    MPKI:0.00
PC:16672     Total:9247      MisBP:0   MisRate:0.00%    MPKI:0.00
PC:1bf72     Total:109293      MisBP:0   MisRate:0.00%    MPKI:0.00
PC:307e8     Total:10180      MisBP:0   MisRate:0.00%    MPKI:0.00
PC:1c3a4     Total:11395      MisBP:0   MisRate:0.00%    MPKI:0.00
PC:4078a     Total:551      MisBP:0   MisRate:0.00%    MPKI:0.00
PC:17692     Total:1730114      MisBP:0   MisRate:0.00%    MPKI:0.00
PC:7bbca     Total:401      MisBP:0   MisRate:0.00%    MPKI:0.00
PC:16676     Total:9246      MisBP:0   MisRate:0.00%    MPKI:0.00
PC:1bf76     Total:109293      MisBP:0   MisRate:0.00%    MPKI:0.00
PC:307ec     Total:14110      MisBP:0   MisRate:0.00%    MPKI:0.00
PC:1c3a8     Total:11392      MisBP:0   MisRate:0.00%    MPKI:0.00
PC:4078e     Total:551      MisBP:0   MisRate:0.00%    MPKI:0.00
PC:176a2     Total:74532      MisBP:0   MisRate:0.00%    MPKI:0.00
PC:3c9fe     Total:59485      MisBP:0   MisRate:0.00%    MPKI:0.00
PC:14eca     Total:53963      MisBP:0   MisRate:0.00%    MPKI:0.00
PC:303e8     Total:2519      MisBP:0   MisRate:0.00%    MPKI:0.00
PC:3dfb2     Total:228      MisBP:0   MisRate:0.00%    MPKI:0.00
PC:14ec6     Total:53963      MisBP:0   MisRate:0.00%    MPKI:0.00
PC:163ca     Total:44326      MisBP:0   MisRate:0.00%    MPKI:0.00
PC:3f4b6     Total:31180      MisBP:0   MisRate:0.00%    MPKI:0.00
PC:16c2e     Total:4645      MisBP:0   MisRate:0.00%    MPKI:0.00
PC:7bbae     Total:559      MisBP:0   MisRate:0.00%    MPKI:0.00
PC:17686     Total:63127      MisBP:0   MisRate:0.00%    MPKI:0.00
PC:7bbb0     Total:559      MisBP:0   MisRate:0.00%    MPKI:0.00
PC:327dc     Total:250      MisBP:0   MisRate:0.00%    MPKI:0.00
PC:163ce     Total:44326      MisBP:0   MisRate:0.00%    MPKI:0.00
PC:3f4ba     Total:28485      MisBP:0   MisRate:0.00%    MPKI:0.00
PC:3fd1e     Total:35      MisBP:0   MisRate:0.00%    MPKI:0.00
PC:16c32     Total:4645      MisBP:0   MisRate:0.00%    MPKI:0.00
PC:7bbb2     Total:559      MisBP:0   MisRate:0.00%    MPKI:0.00
PC:1665e     Total:9460      MisBP:0   MisRate:0.00%    MPKI:0.00
PC:1768a     Total:1732029      MisBP:0   MisRate:0.00%    MPKI:0.00
PC:1768e     Total:3462587      MisBP:0   MisRate:0.00%    MPKI:0.00
PC:3355c     Total:1191      MisBP:0   MisRate:0.00%    MPKI:0.00
PC:41a50     Total:6701      MisBP:0   MisRate:0.00%    MPKI:0.00
PC:41e82     Total:5051      MisBP:0   MisRate:0.00%    MPKI:0.00
PC:2d60c     Total:268      MisBP:0   MisRate:0.00%    MPKI:0.00
PC:14ef4     Total:50905      MisBP:0   MisRate:0.00%    MPKI:0.00
PC:47dd0     Total:19      MisBP:0   MisRate:0.00%    MPKI:0.00
PC:3e27a     Total:68      MisBP:0   MisRate:0.00%    MPKI:0.00
PC:18d98     Total:13      MisBP:0   MisRate:0.00%    MPKI:0.00
PC:2d60e     Total:268      MisBP:0   MisRate:0.00%    MPKI:0.00
PC:47dd2     Total:782      MisBP:0   MisRate:0.00%    MPKI:0.00
PC:327ec     Total:245      MisBP:0   MisRate:0.00%    MPKI:0.00
PC:1bf8a     Total:59174      MisBP:0   MisRate:0.00%    MPKI:0.00
PC:30800     Total:945      MisBP:0   MisRate:0.00%    MPKI:0.00
PC:1c3bc     Total:5435      MisBP:0   MisRate:0.00%    MPKI:0.00
PC:14ef8     Total:44959      MisBP:0   MisRate:0.00%    MPKI:0.00
PC:47dd4     Total:782      MisBP:0   MisRate:0.00%    MPKI:0.00
PC:3355e     Total:1190      MisBP:0   MisRate:0.00%    MPKI:0.00
PC:407a4     Total:11380      MisBP:0   MisRate:0.00%    MPKI:0.00
PC:176b8     Total:108423      MisBP:0   MisRate:0.00%    MPKI:0.00
PC:2d600     Total:7527      MisBP:0   MisRate:0.00%    MPKI:0.00
PC:41a40     Total:6701      MisBP:0   MisRate:0.00%    MPKI:0.00
PC:41e72     Total:4227      MisBP:0   MisRate:0.00%    MPKI:0.00
PC:2d5fc     Total:8002      MisBP:0   MisRate:0.00%    MPKI:0.00
PC:3ca02     Total:59485      MisBP:0   MisRate:0.00%    MPKI:0.00
PC:3ce34     Total:40669      MisBP:0   MisRate:0.00%    MPKI:0.00
PC:285be     Total:14359      MisBP:0   MisRate:0.00%    MPKI:0.00
PC:327e0     Total:250      MisBP:0   MisRate:0.00%    MPKI:0.00
PC:41a44     Total:6701      MisBP:0   MisRate:0.00%    MPKI:0.00
PC:7b986     Total:23      MisBP:0   MisRate:0.00%    MPKI:0.00
PC:14ee8     Total:50910      MisBP:0   MisRate:0.00%    MPKI:0.00
PC:3354e     Total:647      MisBP:0   MisRate:0.00%    MPKI:0.00
PC:14eec     Total:50908      MisBP:0   MisRate:0.00%    MPKI:0.00
PC:47dc8     Total:17      MisBP:0   MisRate:0.00%    MPKI:0.00
PC:14ef0     Total:50905      MisBP:0   MisRate:0.00%    MPKI:0.00
PC:47dcc     Total:19      MisBP:0   MisRate:0.00%    MPKI:0.00
PC:33556     Total:885      MisBP:0   MisRate:0.00%    MPKI:0.00
PC:3ca0e     Total:425663      MisBP:0   MisRate:0.00%    MPKI:0.00
PC:42240     Total:4      MisBP:0   MisRate:0.00%    MPKI:0.00
PC:190c0     Total:32019      MisBP:0   MisRate:0.00%    MPKI:0.00
PC:2d504     Total:457      MisBP:0   MisRate:0.00%    MPKI:0.00
PC:3c28e     Total:39212      MisBP:0   MisRate:0.00%    MPKI:0.00
PC:934a8     Total:4      MisBP:0   MisRate:0.00%    MPKI:0.00
PC:2ca5a     Total:28131      MisBP:0   MisRate:0.00%    MPKI:0.00
PC:3c31c     Total:6554      MisBP:0   MisRate:0.00%    MPKI:0.00
PC:1914e     Total:12032      MisBP:0   MisRate:0.00%    MPKI:0.00
PC:beffaf9c     Total:1      MisBP:0   MisRate:0.00%    MPKI:0.00
PC:3c320     Total:6554      MisBP:0   MisRate:0.00%    MPKI:0.00
PC:421ac     Total:30      MisBP:0   MisRate:0.00%    MPKI:0.00
PC:19154     Total:39696      MisBP:0   MisRate:0.00%    MPKI:0.00
PC:2d598     Total:35674      MisBP:0   MisRate:0.00%    MPKI:0.00
PC:beffafa0     Total:1      MisBP:0   MisRate:0.00%    MPKI:0.00
PC:3c324     Total:6553      MisBP:0   MisRate:0.00%    MPKI:0.00
PC:beffafa4     Total:1      MisBP:0   MisRate:0.00%    MPKI:0.00
PC:3c328     Total:6529      MisBP:0   MisRate:0.00%    MPKI:0.00
PC:42246     Total:102      MisBP:0   MisRate:0.00%    MPKI:0.00
PC:1915a     Total:12892      MisBP:0   MisRate:0.00%    MPKI:0.00
PC:190b2     Total:55524      MisBP:0   MisRate:0.00%    MPKI:0.00
PC:18d5a     Total:72693      MisBP:0   MisRate:0.00%    MPKI:0.00
PC:415e2     Total:1725      MisBP:0   MisRate:0.00%    MPKI:0.00
PC:17e7e     Total:42595      MisBP:0   MisRate:0.00%    MPKI:0.00
PC:40f6a     Total:581      MisBP:0   MisRate:0.00%    MPKI:0.00
PC:4139c     Total:7739      MisBP:0   MisRate:0.00%    MPKI:0.00
PC:3c27e     Total:10851      MisBP:0   MisRate:0.00%    MPKI:0.00
PC:2ce7c     Total:10338      MisBP:0   MisRate:0.00%    MPKI:0.00
PC:3c280     Total:2      MisBP:0   MisRate:0.00%    MPKI:0.00
PC:4219e     Total:10      MisBP:0   MisRate:0.00%    MPKI:0.00
PC:41e14     Total:47      MisBP:0   MisRate:0.00%    MPKI:0.00
PC:3c282     Total:2      MisBP:0   MisRate:0.00%    MPKI:0.00
PC:416f6     Total:54      MisBP:0   MisRate:0.00%    MPKI:0.00
PC:1860a     Total:1392      MisBP:0   MisRate:0.00%    MPKI:0.00
PC:2ce80     Total:9563      MisBP:0   MisRate:0.00%    MPKI:0.00
PC:190b8     Total:35598      MisBP:0   MisRate:0.00%    MPKI:0.00
PC:421aa     Total:30      MisBP:0   MisRate:0.00%    MPKI:0.00
PC:190be     Total:35596      MisBP:0   MisRate:0.00%    MPKI:0.00
PC:3c28c     Total:39212      MisBP:0   MisRate:0.00%    MPKI:0.00
PC:3ce3a     Total:40669      MisBP:0   MisRate:0.00%    MPKI:0.00
PC:41e74     Total:4227      MisBP:0   MisRate:0.00%    MPKI:0.00
PC:2d5fe     Total:8002      MisBP:0   MisRate:0.00%    MPKI:0.00
PC:3dfd2     Total:10      MisBP:0   MisRate:0.00%    MPKI:0.00
PC:47dc2     Total:17      MisBP:0   MisRate:0.00%    MPKI:0.00
PC:3354c     Total:647      MisBP:0   MisRate:0.00%    MPKI:0.00
PC:41a46     Total:6701      MisBP:0   MisRate:0.00%    MPKI:0.00
PC:18d8c     Total:13      MisBP:0   MisRate:0.00%    MPKI:0.00
PC:2d602     Total:7527      MisBP:0   MisRate:0.00%    MPKI:0.00
PC:3ca08     Total:245281      MisBP:0   MisRate:0.00%    MPKI:0.00
PC:18d88     Total:13      MisBP:0   MisRate:0.00%    MPKI:0.00
PC:285c4     Total:13510      MisBP:0   MisRate:0.00%    MPKI:0.00
PC:327e6     Total:245      MisBP:0   MisRate:0.00%    MPKI:0.00
PC:41a4a     Total:6701      MisBP:0   MisRate:0.00%    MPKI:0.00
PC:18d90     Total:13      MisBP:0   MisRate:0.00%    MPKI:0.00
PC:3ca0c     Total:212421      MisBP:0   MisRate:0.00%    MPKI:0.00
PC:3ce3e     Total:45796      MisBP:0   MisRate:0.00%    MPKI:0.00
PC:285c8     Total:13508      MisBP:0   MisRate:0.00%    MPKI:0.00
PC:327ea     Total:245      MisBP:0   MisRate:0.00%    MPKI:0.00
PC:18d32     Total:171088      MisBP:0   MisRate:0.00%    MPKI:0.00
PC:18d28     Total:171114      MisBP:0   MisRate:0.00%    MPKI:0.00
PC:2d59e     Total:35674      MisBP:0   MisRate:0.00%    MPKI:0.00
PC:3c32a     Total:6528      MisBP:0   MisRate:0.00%    MPKI:0.00
PC:beffafa8     Total:1      MisBP:0   MisRate:0.00%    MPKI:0.00
PC:3c32c     Total:6528      MisBP:0   MisRate:0.00%    MPKI:0.00
PC:1915e     Total:12892      MisBP:0   MisRate:0.00%    MPKI:0.00
PC:3c332     Total:7325      MisBP:0   MisRate:0.00%    MPKI:0.00
PC:41e1e     Total:47      MisBP:0   MisRate:0.00%    MPKI:0.00
PC:2d5d0     Total:61491      MisBP:0   MisRate:0.00%    MPKI:0.00
PC:2d5a8     Total:35674      MisBP:0   MisRate:0.00%    MPKI:0.00
PC:3c336     Total:7325      MisBP:0   MisRate:0.00%    MPKI:0.00
PC:1916c     Total:15950      MisBP:0   MisRate:0.00%    MPKI:0.00
PC:41a3e     Total:7406      MisBP:0   MisRate:0.00%    MPKI:0.00
PC:3dfce     Total:10      MisBP:0   MisRate:0.00%    MPKI:0.00
PC:14ee2     Total:157660      MisBP:0   MisRate:0.00%    MPKI:0.00
PC:33548     Total:648      MisBP:0   MisRate:0.00%    MPKI:0.00
PC:41a42     Total:6701      MisBP:0   MisRate:0.00%    MPKI:0.00
PC:1ac12     Total:98633      MisBP:0   MisRate:0.00%    MPKI:0.00
PC:15bce     Total:30379      MisBP:0   MisRate:0.00%    MPKI:0.00
PC:2f486     Total:219      MisBP:0   MisRate:0.00%    MPKI:0.00
PC:1ac10     Total:98634      MisBP:0   MisRate:0.00%    MPKI:0.00
PC:40898     Total:4131      MisBP:0   MisRate:0.00%    MPKI:0.00
PC:177ac     Total:614      MisBP:0   MisRate:0.00%    MPKI:0.00
PC:72ade     Total:282      MisBP:0   MisRate:0.00%    MPKI:0.00
PC:3ecbc     Total:5265      MisBP:0   MisRate:0.00%    MPKI:0.00
PC:15bd0     Total:30378      MisBP:0   MisRate:0.00%    MPKI:0.00
PC:2f488     Total:219      MisBP:0   MisRate:0.00%    MPKI:0.00
PC:177aa     Total:704      MisBP:0   MisRate:0.00%    MPKI:0.00
PC:16f4a     Total:8223      MisBP:0   MisRate:0.00%    MPKI:0.00
PC:40036     Total:6584      MisBP:0   MisRate:0.00%    MPKI:0.00
PC:16f4e     Total:8223      MisBP:0   MisRate:0.00%    MPKI:0.00
PC:177b2     Total:505      MisBP:0   MisRate:0.00%    MPKI:0.00
PC:72ae4     Total:255      MisBP:0   MisRate:0.00%    MPKI:0.00
PC:24c9c     Total:1776      MisBP:0   MisRate:0.00%    MPKI:0.00
PC:1a648     Total:16901      MisBP:0   MisRate:0.00%    MPKI:0.00
PC:2eebe     Total:5      MisBP:0   MisRate:0.00%    MPKI:0.00
PC:177a4     Total:704      MisBP:0   MisRate:0.00%    MPKI:0.00
PC:3e024     Total:69      MisBP:0   MisRate:0.00%    MPKI:0.00
PC:14f38     Total:52278      MisBP:0   MisRate:0.00%    MPKI:0.00
PC:176fa     Total:1229      MisBP:0   MisRate:0.00%    MPKI:0.00
PC:16e96     Total:1091      MisBP:0   MisRate:0.00%    MPKI:0.00
PC:3ff82     Total:8998      MisBP:0   MisRate:0.00%    MPKI:0.00
PC:7b98a     Total:23      MisBP:0   MisRate:0.00%    MPKI:0.00
PC:3e028     Total:100      MisBP:0   MisRate:0.00%    MPKI:0.00
PC:14f3c     Total:52278      MisBP:0   MisRate:0.00%    MPKI:0.00
PC:4002c     Total:5134      MisBP:0   MisRate:0.00%    MPKI:0.00
PC:3ecc2     Total:4783      MisBP:0   MisRate:0.00%    MPKI:0.00
PC:72ad6     Total:282      MisBP:0   MisRate:0.00%    MPKI:0.00
PC:16f44     Total:8223      MisBP:0   MisRate:0.00%    MPKI:0.00
PC:40030     Total:5134      MisBP:0   MisRate:0.00%    MPKI:0.00
PC:40894     Total:8416      MisBP:0   MisRate:0.00%    MPKI:0.00
PC:177a8     Total:704      MisBP:0   MisRate:0.00%    MPKI:0.00
PC:72ada     Total:282      MisBP:0   MisRate:0.00%    MPKI:0.00
PC:16f46     Total:8223      MisBP:0   MisRate:0.00%    MPKI:0.00
PC:40032     Total:5134      MisBP:0   MisRate:0.00%    MPKI:0.00
PC:31616     Total:13      MisBP:0   MisRate:0.00%    MPKI:0.00
PC:40708     Total:1999      MisBP:0   MisRate:0.00%    MPKI:0.00
PC:40090     Total:424      MisBP:0   MisRate:0.00%    MPKI:0.00
PC:4070c     Total:1999      MisBP:0   MisRate:0.00%    MPKI:0.00
PC:16fa8     Total:9674      MisBP:0   MisRate:0.00%    MPKI:0.00
PC:40094     Total:420      MisBP:0   MisRate:0.00%    MPKI:0.00
PC:40710     Total:1962      MisBP:0   MisRate:0.00%    MPKI:0.00
PC:40098     Total:1      MisBP:0   MisRate:0.00%    MPKI:0.00
PC:16e82     Total:2182      MisBP:0   MisRate:0.00%    MPKI:0.00
PC:3ff6e     Total:9883      MisBP:0   MisRate:0.00%    MPKI:0.00
PC:9ba3a     Total:252      MisBP:0   MisRate:0.00%    MPKI:0.00
PC:1cda0     Total:190794      MisBP:0   MisRate:0.00%    MPKI:0.00
PC:1659a     Total:15944      MisBP:0   MisRate:0.00%    MPKI:0.00
PC:4139a     Total:8015      MisBP:0   MisRate:0.00%    MPKI:0.00
PC:2cb24     Total:109763      MisBP:0   MisRate:0.00%    MPKI:0.00
PC:16bcc     Total:7954      MisBP:0   MisRate:0.00%    MPKI:0.00
PC:3bf28     Total:50450      MisBP:0   MisRate:0.00%    MPKI:0.00
PC:31d06     Total:73      MisBP:0   MisRate:0.00%    MPKI:0.00
PC:41e46     Total:1      MisBP:0   MisRate:0.00%    MPKI:0.00
PC:406fc     Total:2078      MisBP:0   MisRate:0.00%    MPKI:0.00
PC:15bd6     Total:10649      MisBP:0   MisRate:0.00%    MPKI:0.00
PC:4003c     Total:570      MisBP:0   MisRate:0.00%    MPKI:0.00
PC:408a0     Total:1310      MisBP:0   MisRate:0.00%    MPKI:0.00
PC:177b4     Total:505      MisBP:0   MisRate:0.00%    MPKI:0.00
PC:72ae6     Total:259      MisBP:0   MisRate:0.00%    MPKI:0.00
PC:406f8     Total:2129      MisBP:0   MisRate:0.00%    MPKI:0.00
PC:16f94     Total:6965      MisBP:0   MisRate:0.00%    MPKI:0.00
PC:72b2a     Total:13      MisBP:0   MisRate:0.00%    MPKI:0.00
PC:1bb72     Total:412      MisBP:0   MisRate:0.00%    MPKI:0.00
PC:16f98     Total:6419      MisBP:0   MisRate:0.00%    MPKI:0.00
PC:40084     Total:424      MisBP:0   MisRate:0.00%    MPKI:0.00
PC:9ba32     Total:252      MisBP:0   MisRate:0.00%    MPKI:0.00
PC:40700     Total:1999      MisBP:0   MisRate:0.00%    MPKI:0.00
PC:16f9c     Total:9360      MisBP:0   MisRate:0.00%    MPKI:0.00
PC:40088     Total:424      MisBP:0   MisRate:0.00%    MPKI:0.00
PC:16fa0     Total:9679      MisBP:0   MisRate:0.00%    MPKI:0.00
PC:4008c     Total:424      MisBP:0   MisRate:0.00%    MPKI:0.00
PC:1a670     Total:271      MisBP:0   MisRate:0.00%    MPKI:0.00
PC:2eaa4     Total:952      MisBP:0   MisRate:0.00%    MPKI:0.00
PC:2eede     Total:2      MisBP:0   MisRate:0.00%    MPKI:0.00
PC:1a668     Total:281      MisBP:0   MisRate:0.00%    MPKI:0.00
PC:2eaac     Total:952      MisBP:0   MisRate:0.00%    MPKI:0.00
PC:3e716     Total:28087      MisBP:0   MisRate:0.00%    MPKI:0.00
PC:1562a     Total:60972      MisBP:0   MisRate:0.00%    MPKI:0.00
PC:2eee2     Total:2      MisBP:0   MisRate:0.00%    MPKI:0.00
PC:1a66c     Total:281      MisBP:0   MisRate:0.00%    MPKI:0.00
PC:2eee6     Total:2      MisBP:0   MisRate:0.00%    MPKI:0.00
PC:1a660     Total:281      MisBP:0   MisRate:0.00%    MPKI:0.00
PC:1a674     Total:271      MisBP:0   MisRate:0.00%    MPKI:0.00
PC:2eab8     Total:6788      MisBP:0   MisRate:0.00%    MPKI:0.00
PC:2eeec     Total:2      MisBP:0   MisRate:0.00%    MPKI:0.00
PC:1a676     Total:271      MisBP:0   MisRate:0.00%    MPKI:0.00
PC:2eaba     Total:6788      MisBP:0   MisRate:0.00%    MPKI:0.00
PC:3e722     Total:24067      MisBP:0   MisRate:0.00%    MPKI:0.00
PC:15636     Total:60492      MisBP:0   MisRate:0.00%    MPKI:0.00
PC:32bd4     Total:78      MisBP:0   MisRate:0.00%    MPKI:0.00
PC:2eec8     Total:2      MisBP:0   MisRate:0.00%    MPKI:0.00
PC:2ea8a     Total:966      MisBP:0   MisRate:0.00%    MPKI:0.00
PC:2ea8c     Total:966      MisBP:0   MisRate:0.00%    MPKI:0.00
PC:2ea8e     Total:966      MisBP:0   MisRate:0.00%    MPKI:0.00
PC:7c058     Total:68      MisBP:0   MisRate:0.00%    MPKI:0.00
PC:1560a     Total:61118      MisBP:0   MisRate:0.00%    MPKI:0.00
PC:2eec2     Total:3      MisBP:0   MisRate:0.00%    MPKI:0.00
PC:1a64e     Total:286      MisBP:0   MisRate:0.00%    MPKI:0.00
PC:2ea92     Total:966      MisBP:0   MisRate:0.00%    MPKI:0.00
PC:15610     Total:61118      MisBP:0   MisRate:0.00%    MPKI:0.00
PC:84dac     Total:166708      MisBP:0   MisRate:0.00%    MPKI:0.00
PC:1a652     Total:281      MisBP:0   MisRate:0.00%    MPKI:0.00
PC:2ea96     Total:952      MisBP:0   MisRate:0.00%    MPKI:0.00
PC:2eeca     Total:2      MisBP:0   MisRate:0.00%    MPKI:0.00
PC:1a654     Total:281      MisBP:0   MisRate:0.00%    MPKI:0.00
PC:15616     Total:60620      MisBP:0   MisRate:0.00%    MPKI:0.00
PC:2eece     Total:2      MisBP:0   MisRate:0.00%    MPKI:0.00
PC:1a658     Total:281      MisBP:0   MisRate:0.00%    MPKI:0.00
PC:2eed6     Total:2      MisBP:0   MisRate:0.00%    MPKI:0.00
PC:1a698     Total:16543      MisBP:0   MisRate:0.00%    MPKI:0.00
PC:2eace     Total:75833      MisBP:0   MisRate:0.00%    MPKI:0.00
PC:1a68e     Total:16551      MisBP:0   MisRate:0.00%    MPKI:0.00
PC:2ead2     Total:3593      MisBP:0   MisRate:0.00%    MPKI:0.00
PC:3e73c     Total:23904      MisBP:0   MisRate:0.00%    MPKI:0.00
PC:15650     Total:59510      MisBP:0   MisRate:0.00%    MPKI:0.00
PC:1a692     Total:16550      MisBP:0   MisRate:0.00%    MPKI:0.00
PC:2ead6     Total:3566      MisBP:0   MisRate:0.00%    MPKI:0.00
PC:15654     Total:59510      MisBP:0   MisRate:0.00%    MPKI:0.00
PC:1a696     Total:16549      MisBP:0   MisRate:0.00%    MPKI:0.00
PC:1a68a     Total:16551      MisBP:0   MisRate:0.00%    MPKI:0.00
PC:2eadc     Total:2312      MisBP:0   MisRate:0.00%    MPKI:0.00
PC:3e746     Total:31435      MisBP:0   MisRate:0.00%    MPKI:0.00
PC:1565a     Total:58805      MisBP:0   MisRate:0.00%    MPKI:0.00
PC:1a69c     Total:16543      MisBP:0   MisRate:0.00%    MPKI:0.00
PC:2eae0     Total:2311      MisBP:0   MisRate:0.00%    MPKI:0.00
PC:1a6a0     Total:16543      MisBP:0   MisRate:0.00%    MPKI:0.00
PC:3e74c     Total:23611      MisBP:0   MisRate:0.00%    MPKI:0.00
PC:15660     Total:58797      MisBP:0   MisRate:0.00%    MPKI:0.00
PC:2eac0     Total:71728      MisBP:0   MisRate:0.00%    MPKI:0.00
PC:2eeee     Total:2      MisBP:0   MisRate:0.00%    MPKI:0.00
PC:1a678     Total:268      MisBP:0   MisRate:0.00%    MPKI:0.00
PC:2eabc     Total:6788      MisBP:0   MisRate:0.00%    MPKI:0.00
PC:7c088     Total:16      MisBP:0   MisRate:0.00%    MPKI:0.00
PC:3e726     Total:24065      MisBP:0   MisRate:0.00%    MPKI:0.00
PC:1563a     Total:60483      MisBP:0   MisRate:0.00%    MPKI:0.00
PC:2eef2     Total:2      MisBP:0   MisRate:0.00%    MPKI:0.00
PC:1a67c     Total:268      MisBP:0   MisRate:0.00%    MPKI:0.00
PC:15604     Total:61127      MisBP:0   MisRate:0.00%    MPKI:0.00
PC:2eef4     Total:2      MisBP:0   MisRate:0.00%    MPKI:0.00
PC:1a67e     Total:268      MisBP:0   MisRate:0.00%    MPKI:0.00
PC:2eac2     Total:71728      MisBP:0   MisRate:0.00%    MPKI:0.00
PC:7c092     Total:10      MisBP:0   MisRate:0.00%    MPKI:0.00
PC:3e730     Total:23936      MisBP:0   MisRate:0.00%    MPKI:0.00
PC:15644     Total:59535      MisBP:0   MisRate:0.00%    MPKI:0.00
PC:1a686     Total:16551      MisBP:0   MisRate:0.00%    MPKI:0.00
PC:2eaca     Total:75833      MisBP:0   MisRate:0.00%    MPKI:0.00
PC:1640a     Total:1396      MisBP:0   MisRate:0.00%    MPKI:0.00
PC:42328     Total:96      MisBP:0   MisRate:0.00%    MPKI:0.00
PC:18bc4     Total:69892      MisBP:0   MisRate:0.00%    MPKI:0.00
PC:41cb0     Total:12770      MisBP:0   MisRate:0.00%    MPKI:0.00
PC:1b852     Total:26880      MisBP:0   MisRate:0.00%    MPKI:0.00
PC:1b420     Total:209      MisBP:0   MisRate:0.00%    MPKI:0.00
PC:2fc96     Total:6852      MisBP:0   MisRate:0.00%    MPKI:0.00
PC:1c328     Total:6971      MisBP:0   MisRate:0.00%    MPKI:0.00
PC:3076c     Total:12863      MisBP:0   MisRate:0.00%    MPKI:0.00
PC:7ce58     Total:1      MisBP:0   MisRate:0.00%    MPKI:0.00
PC:1923c     Total:1      MisBP:0   MisRate:0.00%    MPKI:0.00
PC:3f4f6     Total:8709      MisBP:0   MisRate:0.00%    MPKI:0.00
PC:14f82     Total:124089      MisBP:0   MisRate:0.00%    MPKI:0.00
PC:3e06e     Total:227      MisBP:0   MisRate:0.00%    MPKI:0.00
PC:3f8fe     Total:291      MisBP:0   MisRate:0.00%    MPKI:0.00
PC:16812     Total:1485      MisBP:0   MisRate:0.00%    MPKI:0.00
PC:32be6     Total:1      MisBP:0   MisRate:0.00%    MPKI:0.00
PC:84dbe     Total:148107      MisBP:0   MisRate:0.00%    MPKI:0.00
PC:7c096     Total:10      MisBP:0   MisRate:0.00%    MPKI:0.00
PC:42324     Total:91      MisBP:0   MisRate:0.00%    MPKI:0.00
PC:1c320     Total:7008      MisBP:0   MisRate:0.00%    MPKI:0.00
PC:30764     Total:2      MisBP:0   MisRate:0.00%    MPKI:0.00
PC:7ce50     Total:1      MisBP:0   MisRate:0.00%    MPKI:0.00
PC:3f4ee     Total:9566      MisBP:0   MisRate:0.00%    MPKI:0.00
PC:42b88     Total:38      MisBP:0   MisRate:0.00%    MPKI:0.00
PC:2e312     Total:755      MisBP:0   MisRate:0.00%    MPKI:0.00
PC:19a9c     Total:18348      MisBP:0   MisRate:0.00%    MPKI:0.00
PC:19238     Total:1      MisBP:0   MisRate:0.00%    MPKI:0.00
PC:2daae     Total:287      MisBP:0   MisRate:0.00%    MPKI:0.00
PC:15648     Total:59534      MisBP:0   MisRate:0.00%    MPKI:0.00
PC:1c324     Total:6994      MisBP:0   MisRate:0.00%    MPKI:0.00
PC:30768     Total:2      MisBP:0   MisRate:0.00%    MPKI:0.00
PC:7ce54     Total:1      MisBP:0   MisRate:0.00%    MPKI:0.00
PC:16406     Total:1396      MisBP:0   MisRate:0.00%    MPKI:0.00
PC:3f4f2     Total:9566      MisBP:0   MisRate:0.00%    MPKI:0.00
PC:42b8c     Total:38      MisBP:0   MisRate:0.00%    MPKI:0.00
PC:2e316     Total:745      MisBP:0   MisRate:0.00%    MPKI:0.00
PC:19aa0     Total:18347      MisBP:0   MisRate:0.00%    MPKI:0.00
PC:1a638     Total:17360      MisBP:0   MisRate:0.00%    MPKI:0.00
PC:1c588     Total:5593      MisBP:0   MisRate:0.00%    MPKI:0.00
PC:3f756     Total:19919      MisBP:0   MisRate:0.00%    MPKI:0.00
PC:155ea     Total:62134      MisBP:0   MisRate:0.00%    MPKI:0.00
PC:3de72     Total:89      MisBP:0   MisRate:0.00%    MPKI:0.00
PC:2ea74     Total:828      MisBP:0   MisRate:0.00%    MPKI:0.00
PC:155f2     Total:61729      MisBP:0   MisRate:0.00%    MPKI:0.00
PC:84d68     Total:148163      MisBP:0   MisRate:0.00%    MPKI:0.00
PC:3de7a     Total:60      MisBP:0   MisRate:0.00%    MPKI:0.00
PC:2ea78     Total:935      MisBP:0   MisRate:0.00%    MPKI:0.00
PC:30686     Total:1003330      MisBP:0   MisRate:0.00%    MPKI:0.00
PC:2ea7c     Total:935      MisBP:0   MisRate:0.00%    MPKI:0.00
PC:2ea7e     Total:933      MisBP:0   MisRate:0.00%    MPKI:0.00
PC:155fa     Total:61728      MisBP:0   MisRate:0.00%    MPKI:0.00
PC:2ea80     Total:906      MisBP:0   MisRate:0.00%    MPKI:0.00
PC:15600     Total:61128      MisBP:0   MisRate:0.00%    MPKI:0.00
PC:2ea86     Total:966      MisBP:0   MisRate:0.00%    MPKI:0.00
PC:2ea88     Total:966      MisBP:0   MisRate:0.00%    MPKI:0.00
PC:7c052     Total:17      MisBP:0   MisRate:0.00%    MPKI:0.00
PC:32bea     Total:1      MisBP:0   MisRate:0.00%    MPKI:0.00
PC:1c892     Total:2200      MisBP:0   MisRate:0.00%    MPKI:0.00
PC:19aa4     Total:18347      MisBP:0   MisRate:0.00%    MPKI:0.00
PC:2dab6     Total:176      MisBP:0   MisRate:0.00%    MPKI:0.00
PC:4232c     Total:96      MisBP:0   MisRate:0.00%    MPKI:0.00
PC:18bc8     Total:69892      MisBP:0   MisRate:0.00%    MPKI:0.00
PC:41cb4     Total:12766      MisBP:0   MisRate:0.00%    MPKI:0.00
PC:1c32c     Total:6952      MisBP:0   MisRate:0.00%    MPKI:0.00
PC:3e072     Total:4      MisBP:0   MisRate:0.00%    MPKI:0.00
PC:1a6a2     Total:16080      MisBP:0   MisRate:0.00%    MPKI:0.00
PC:84dc2     Total:148107      MisBP:0   MisRate:0.00%    MPKI:0.00
PC:1c896     Total:2200      MisBP:0   MisRate:0.00%    MPKI:0.00
PC:42b94     Total:38      MisBP:0   MisRate:0.00%    MPKI:0.00
PC:19aa8     Total:18347      MisBP:0   MisRate:0.00%    MPKI:0.00
PC:1c572     Total:6509      MisBP:0   MisRate:0.00%    MPKI:0.00
PC:1c576     Total:6509      MisBP:0   MisRate:0.00%    MPKI:0.00
PC:1c57e     Total:5594      MisBP:0   MisRate:0.00%    MPKI:0.00
PC:970d4     Total:42      MisBP:0   MisRate:0.00%    MPKI:0.00
PC:47d86     Total:199      MisBP:0   MisRate:0.00%    MPKI:0.00
PC:3350a     Total:10      MisBP:0   MisRate:0.00%    MPKI:0.00
PC:5130c     Total:1475      MisBP:0   MisRate:0.00%    MPKI:0.00
PC:7a3f8     Total:37      MisBP:0   MisRate:0.00%    MPKI:0.00
PC:7cdf6     Total:9      MisBP:0   MisRate:0.00%    MPKI:0.00
PC:3f494     Total:45487      MisBP:0   MisRate:0.00%    MPKI:0.00
PC:3fcf8     Total:12      MisBP:0   MisRate:0.00%    MPKI:0.00
PC:16c0c     Total:7186      MisBP:0   MisRate:0.00%    MPKI:0.00
PC:17666     Total:68741      MisBP:0   MisRate:0.00%    MPKI:0.00
PC:14eaa     Total:61284      MisBP:0   MisRate:0.00%    MPKI:0.00
PC:3df90     Total:5      MisBP:0   MisRate:0.00%    MPKI:0.00
PC:33510     Total:5      MisBP:0   MisRate:0.00%    MPKI:0.00
PC:beffb718     Total:1      MisBP:0   MisRate:0.00%    MPKI:0.00
PC:3ca9c     Total:199      MisBP:0   MisRate:0.00%    MPKI:0.00
PC:7a3fe     Total:24      MisBP:0   MisRate:0.00%    MPKI:0.00
PC:1766a     Total:68741      MisBP:0   MisRate:0.00%    MPKI:0.00
PC:3fd00     Total:2      MisBP:0   MisRate:0.00%    MPKI:0.00
PC:16c14     Total:7186      MisBP:0   MisRate:0.00%    MPKI:0.00
PC:1bb60     Total:5      MisBP:0   MisRate:0.00%    MPKI:0.00
PC:33502     Total:10      MisBP:0   MisRate:0.00%    MPKI:0.00
PC:3e7ee     Total:20780      MisBP:0   MisRate:0.00%    MPKI:0.00
PC:7c150     Total:468      MisBP:0   MisRate:0.00%    MPKI:0.00
PC:1c2ba     Total:8016      MisBP:0   MisRate:0.00%    MPKI:0.00
PC:306fe     Total:10740      MisBP:0   MisRate:0.00%    MPKI:0.00
PC:40746     Total:11      MisBP:0   MisRate:0.00%    MPKI:0.00
PC:1765a     Total:68769      MisBP:0   MisRate:0.00%    MPKI:0.00
PC:3df88     Total:3      MisBP:0   MisRate:0.00%    MPKI:0.00
PC:14e9c     Total:155655      MisBP:0   MisRate:0.00%    MPKI:0.00
PC:47d78     Total:939      MisBP:0   MisRate:0.00%    MPKI:0.00
PC:303d6     Total:2771      MisBP:0   MisRate:0.00%    MPKI:0.00
PC:51304     Total:1475      MisBP:0   MisRate:0.00%    MPKI:0.00
PC:7a3f0     Total:27      MisBP:0   MisRate:0.00%    MPKI:0.00
PC:3df8c     Total:3      MisBP:0   MisRate:0.00%    MPKI:0.00
PC:14ea0     Total:155655      MisBP:0   MisRate:0.00%    MPKI:0.00
PC:47d7c     Total:910      MisBP:0   MisRate:0.00%    MPKI:0.00
PC:33506     Total:10      MisBP:0   MisRate:0.00%    MPKI:0.00
PC:4074e     Total:11      MisBP:0   MisRate:0.00%    MPKI:0.00
PC:17662     Total:68760      MisBP:0   MisRate:0.00%    MPKI:0.00
PC:3fd0c     Total:2      MisBP:0   MisRate:0.00%    MPKI:0.00
PC:7a406     Total:15      MisBP:0   MisRate:0.00%    MPKI:0.00
PC:7ce04     Total:40      MisBP:0   MisRate:0.00%    MPKI:0.00
PC:163b6     Total:47284      MisBP:0   MisRate:0.00%    MPKI:0.00
PC:3dfa2     Total:75      MisBP:0   MisRate:0.00%    MPKI:0.00
PC:14eb6     Total:59023      MisBP:0   MisRate:0.00%    MPKI:0.00
PC:856f4     Total:29      MisBP:0   MisRate:0.00%    MPKI:0.00
PC:3351c     Total:5      MisBP:0   MisRate:0.00%    MPKI:0.00
PC:17676     Total:67530      MisBP:0   MisRate:0.00%    MPKI:0.00
PC:3f4a8     Total:31197      MisBP:0   MisRate:0.00%    MPKI:0.00
PC:3caa4     Total:197      MisBP:0   MisRate:0.00%    MPKI:0.00
PC:16c20     Total:4645      MisBP:0   MisRate:0.00%    MPKI:0.00
PC:1bb6c     Total:412      MisBP:0   MisRate:0.00%    MPKI:0.00
PC:7bba0     Total:2825      MisBP:0   MisRate:0.00%    MPKI:0.00
PC:3f738     Total:14      MisBP:0   MisRate:0.00%    MPKI:0.00
PC:1664c     Total:9956      MisBP:0   MisRate:0.00%    MPKI:0.00
PC:14eba     Total:59022      MisBP:0   MisRate:0.00%    MPKI:0.00
PC:47d96     Total:153      MisBP:0   MisRate:0.00%    MPKI:0.00
PC:33520     Total:5      MisBP:0   MisRate:0.00%    MPKI:0.00
PC:4075a     Total:1      MisBP:0   MisRate:0.00%    MPKI:0.00
PC:3df9a     Total:5      MisBP:0   MisRate:0.00%    MPKI:0.00
PC:14eae     Total:61284      MisBP:0   MisRate:0.00%    MPKI:0.00
PC:47d8a     Total:174      MisBP:0   MisRate:0.00%    MPKI:0.00
PC:33514     Total:5      MisBP:0   MisRate:0.00%    MPKI:0.00
PC:beffb71c     Total:1      MisBP:0   MisRate:0.00%    MPKI:0.00
PC:3caa0     Total:197      MisBP:0   MisRate:0.00%    MPKI:0.00
PC:51316     Total:1474      MisBP:0   MisRate:0.00%    MPKI:0.00
PC:7a402     Total:15      MisBP:0   MisRate:0.00%    MPKI:0.00
PC:16bfc     Total:7433      MisBP:0   MisRate:0.00%    MPKI:0.00
PC:1766e     Total:68733      MisBP:0   MisRate:0.00%    MPKI:0.00
PC:1bb64     Total:423      MisBP:0   MisRate:0.00%    MPKI:0.00
PC:303da     Total:2763      MisBP:0   MisRate:0.00%    MPKI:0.00
PC:3df9e     Total:75      MisBP:0   MisRate:0.00%    MPKI:0.00
PC:14eb2     Total:61283      MisBP:0   MisRate:0.00%    MPKI:0.00
PC:856f0     Total:87      MisBP:0   MisRate:0.00%    MPKI:0.00
PC:33518     Total:5      MisBP:0   MisRate:0.00%    MPKI:0.00
PC:beffb720     Total:1      MisBP:0   MisRate:0.00%    MPKI:0.00
PC:3f66a     Total:387      MisBP:0   MisRate:0.00%    MPKI:0.00
PC:3e26a     Total:68      MisBP:0   MisRate:0.00%    MPKI:0.00
PC:7bbcc     Total:401      MisBP:0   MisRate:0.00%    MPKI:0.00
PC:1c498     Total:5672      MisBP:0   MisRate:0.00%    MPKI:0.00
PC:308dc     Total:18      MisBP:0   MisRate:0.00%    MPKI:0.00
PC:7cfc8     Total:15      MisBP:0   MisRate:0.00%    MPKI:0.00
PC:1657a     Total:20263      MisBP:0   MisRate:0.00%    MPKI:0.00
PC:3f666     Total:387      MisBP:0   MisRate:0.00%    MPKI:0.00
PC:7cfcc     Total:15      MisBP:0   MisRate:0.00%    MPKI:0.00
PC:1657e     Total:18385      MisBP:0   MisRate:0.00%    MPKI:0.00
PC:308d8     Total:18      MisBP:0   MisRate:0.00%    MPKI:0.00
PC:1c4a8     Total:19767      MisBP:0   MisRate:0.00%    MPKI:0.00
PC:1c076     Total:78727      MisBP:0   MisRate:0.00%    MPKI:0.00
PC:308ec     Total:13      MisBP:0   MisRate:0.00%    MPKI:0.00
PC:1c4ac     Total:9883      MisBP:0   MisRate:0.00%    MPKI:0.00
PC:3f6d4     Total:9567      MisBP:0   MisRate:0.00%    MPKI:0.00
PC:165ec     Total:18295      MisBP:0   MisRate:0.00%    MPKI:0.00
PC:3f6d8     Total:28853      MisBP:0   MisRate:0.00%    MPKI:0.00
PC:7c3a8     Total:23      MisBP:0   MisRate:0.00%    MPKI:0.00
PC:1c48e     Total:5672      MisBP:0   MisRate:0.00%    MPKI:0.00
PC:2eae6     Total:2130      MisBP:0   MisRate:0.00%    MPKI:0.00
PC:1a6a6     Total:16079      MisBP:0   MisRate:0.00%    MPKI:0.00
PC:2eaea     Total:2128      MisBP:0   MisRate:0.00%    MPKI:0.00
PC:3e752     Total:6479      MisBP:0   MisRate:0.00%    MPKI:0.00
PC:15666     Total:58797      MisBP:0   MisRate:0.00%    MPKI:0.00
PC:84ddc     Total:135973      MisBP:0   MisRate:0.00%    MPKI:0.00
PC:2eaec     Total:2122      MisBP:0   MisRate:0.00%    MPKI:0.00
PC:30d04     Total:32      MisBP:0   MisRate:0.00%    MPKI:0.00
PC:1592c     Total:64466      MisBP:0   MisRate:0.00%    MPKI:0.00
PC:1c05c     Total:82292      MisBP:0   MisRate:0.00%    MPKI:0.00
PC:308d2     Total:7      MisBP:0   MisRate:0.00%    MPKI:0.00
PC:1c492     Total:5672      MisBP:0   MisRate:0.00%    MPKI:0.00
PC:7cfc2     Total:8      MisBP:0   MisRate:0.00%    MPKI:0.00
PC:16574     Total:20413      MisBP:0   MisRate:0.00%    MPKI:0.00
PC:3f660     Total:387      MisBP:0   MisRate:0.00%    MPKI:0.00
PC:30d0a     Total:37      MisBP:0   MisRate:0.00%    MPKI:0.00
PC:1c494     Total:5672      MisBP:0   MisRate:0.00%    MPKI:0.00
PC:3df80     Total:3      MisBP:0   MisRate:0.00%    MPKI:0.00
PC:1be7c     Total:52      MisBP:0   MisRate:0.00%    MPKI:0.00
PC:306f2     Total:10945      MisBP:0   MisRate:0.00%    MPKI:0.00
PC:14e90     Total:49631      MisBP:0   MisRate:0.00%    MPKI:0.00
PC:47d6c     Total:3229      MisBP:0   MisRate:0.00%    MPKI:0.00
PC:334f6     Total:21      MisBP:0   MisRate:0.00%    MPKI:0.00
PC:512f8     Total:1741      MisBP:0   MisRate:0.00%    MPKI:0.00
PC:7a3e4     Total:10      MisBP:0   MisRate:0.00%    MPKI:0.00
PC:1c2b2     Total:8016      MisBP:0   MisRate:0.00%    MPKI:0.00
PC:306f6     Total:10924      MisBP:0   MisRate:0.00%    MPKI:0.00
PC:1c2ae     Total:7672      MisBP:0   MisRate:0.00%    MPKI:0.00
PC:14e94     Total:49630      MisBP:0   MisRate:0.00%    MPKI:0.00
PC:334fa     Total:21      MisBP:0   MisRate:0.00%    MPKI:0.00
PC:512fc     Total:1741      MisBP:0   MisRate:0.00%    MPKI:0.00
PC:7a3e8     Total:10      MisBP:0   MisRate:0.00%    MPKI:0.00
PC:1c2b6     Total:8016      MisBP:0   MisRate:0.00%    MPKI:0.00
PC:306fa     Total:11205      MisBP:0   MisRate:0.00%    MPKI:0.00
PC:3f484     Total:46470      MisBP:0   MisRate:0.00%    MPKI:0.00
PC:3fce8     Total:83      MisBP:0   MisRate:0.00%    MPKI:0.00
PC:2cbe0     Total:35      MisBP:0   MisRate:0.00%    MPKI:0.00
PC:7c37a     Total:105      MisBP:0   MisRate:0.00%    MPKI:0.00
PC:7ceb8     Total:1      MisBP:0   MisRate:0.00%    MPKI:0.00
PC:1646a     Total:18745      MisBP:0   MisRate:0.00%    MPKI:0.00
PC:3f556     Total:55199      MisBP:0   MisRate:0.00%    MPKI:0.00
PC:16e70     Total:1976      MisBP:0   MisRate:0.00%    MPKI:0.00
PC:3ff5c     Total:12323      MisBP:0   MisRate:0.00%    MPKI:0.00
PC:92134     Total:316      MisBP:0   MisRate:0.00%    MPKI:0.00
PC:41456     Total:71      MisBP:0   MisRate:0.00%    MPKI:0.00
PC:41a4e     Total:6701      MisBP:0   MisRate:0.00%    MPKI:0.00
PC:41d14     Total:9001      MisBP:0   MisRate:0.00%    MPKI:0.00
PC:306e2     Total:178105      MisBP:0   MisRate:0.00%    MPKI:0.00
PC:306e6     Total:1042771      MisBP:0   MisRate:0.00%    MPKI:0.00
PC:14e8c     Total:48947      MisBP:0   MisRate:0.00%    MPKI:0.00
PC:47d68     Total:3229      MisBP:0   MisRate:0.00%    MPKI:0.00
PC:334f2     Total:21      MisBP:0   MisRate:0.00%    MPKI:0.00
PC:512f4     Total:1741      MisBP:0   MisRate:0.00%    MPKI:0.00
PC:7a3e0     Total:10      MisBP:0   MisRate:0.00%    MPKI:0.00
PC:1b436     Total:759      MisBP:0   MisRate:0.00%    MPKI:0.00
PC:4233a     Total:82      MisBP:0   MisRate:0.00%    MPKI:0.00
PC:14f92     Total:124070      MisBP:0   MisRate:0.00%    MPKI:0.00
PC:3e07e     Total:4      MisBP:0   MisRate:0.00%    MPKI:0.00
PC:48ab6     Total:12      MisBP:0   MisRate:0.00%    MPKI:0.00
PC:157a8     Total:71028      MisBP:0   MisRate:0.00%    MPKI:0.00
PC:3e894     Total:3784      MisBP:0   MisRate:0.00%    MPKI:0.00
PC:1b864     Total:17948      MisBP:0   MisRate:0.00%    MPKI:0.00
PC:18bd8     Total:527231      MisBP:0   MisRate:0.00%    MPKI:0.00
PC:1b868     Total:17948      MisBP:0   MisRate:0.00%    MPKI:0.00
PC:19ab2     Total:17268      MisBP:0   MisRate:0.00%    MPKI:0.00
PC:2fcac     Total:245      MisBP:0   MisRate:0.00%    MPKI:0.00
PC:16826     Total:1584      MisBP:0   MisRate:0.00%    MPKI:0.00
PC:1c8a6     Total:15504      MisBP:0   MisRate:0.00%    MPKI:0.00
PC:1c58e     Total:5593      MisBP:0   MisRate:0.00%    MPKI:0.00
PC:1c252     Total:66028      MisBP:0   MisRate:0.00%    MPKI:0.00
PC:2e32e     Total:735      MisBP:0   MisRate:0.00%    MPKI:0.00
PC:19ab8     Total:17268      MisBP:0   MisRate:0.00%    MPKI:0.00
PC:18bdc     Total:587020      MisBP:0   MisRate:0.00%    MPKI:0.00
PC:beffccf4     Total:2      MisBP:0   MisRate:0.00%    MPKI:0.00
PC:16818     Total:1485      MisBP:0   MisRate:0.00%    MPKI:0.00
PC:1c898     Total:13945      MisBP:0   MisRate:0.00%    MPKI:0.00
PC:2e320     Total:745      MisBP:0   MisRate:0.00%    MPKI:0.00
PC:19aaa     Total:18347      MisBP:0   MisRate:0.00%    MPKI:0.00
PC:2dabc     Total:176      MisBP:0   MisRate:0.00%    MPKI:0.00
PC:42332     Total:96      MisBP:0   MisRate:0.00%    MPKI:0.00
PC:2d444     Total:66      MisBP:0   MisRate:0.00%    MPKI:0.00
PC:41cba     Total:12398      MisBP:0   MisRate:0.00%    MPKI:0.00
PC:7ad44     Total:25      MisBP:0   MisRate:0.00%    MPKI:0.00
PC:4252c     Total:50      MisBP:0   MisRate:0.00%    MPKI:0.00
PC:3e078     Total:4      MisBP:0   MisRate:0.00%    MPKI:0.00
PC:1c89c     Total:13943      MisBP:0   MisRate:0.00%    MPKI:0.00
PC:19aae     Total:17268      MisBP:0   MisRate:0.00%    MPKI:0.00
PC:42336     Total:96      MisBP:0   MisRate:0.00%    MPKI:0.00
PC:1b430     Total:1498      MisBP:0   MisRate:0.00%    MPKI:0.00
PC:2fca6     Total:251      MisBP:0   MisRate:0.00%    MPKI:0.00
PC:16820     Total:1581      MisBP:0   MisRate:0.00%    MPKI:0.00
PC:84dcc     Total:148403      MisBP:0   MisRate:0.00%    MPKI:0.00
PC:157bc     Total:76643      MisBP:0   MisRate:0.00%    MPKI:0.00
PC:1b442     Total:443      MisBP:0   MisRate:0.00%    MPKI:0.00
PC:2fcb8     Total:213      MisBP:0   MisRate:0.00%    MPKI:0.00
PC:16832     Total:3622      MisBP:0   MisRate:0.00%    MPKI:0.00
PC:1c8b2     Total:1700      MisBP:0   MisRate:0.00%    MPKI:0.00
PC:41cd4     Total:7381      MisBP:0   MisRate:0.00%    MPKI:0.00
PC:3d3fc     Total:28      MisBP:0   MisRate:0.00%    MPKI:0.00
PC:7ad5e     Total:25      MisBP:0   MisRate:0.00%    MPKI:0.00
PC:48aca     Total:259      MisBP:0   MisRate:0.00%    MPKI:0.00
PC:7c20a     Total:2      MisBP:0   MisRate:0.00%    MPKI:0.00
PC:1b874     Total:17650      MisBP:0   MisRate:0.00%    MPKI:0.00
PC:3e8a8     Total:523      MisBP:0   MisRate:0.00%    MPKI:0.00
PC:3f922     Total:2053      MisBP:0   MisRate:0.00%    MPKI:0.00
PC:16836     Total:3622      MisBP:0   MisRate:0.00%    MPKI:0.00
PC:1c8b6     Total:1695      MisBP:0   MisRate:0.00%    MPKI:0.00
PC:41cd8     Total:7380      MisBP:0   MisRate:0.00%    MPKI:0.00
PC:4253c     Total:42      MisBP:0   MisRate:0.00%    MPKI:0.00
PC:1b87a     Total:17629      MisBP:0   MisRate:0.00%    MPKI:0.00
PC:1b448     Total:347      MisBP:0   MisRate:0.00%    MPKI:0.00
PC:48ac4     Total:259      MisBP:0   MisRate:0.00%    MPKI:0.00
PC:7ad50     Total:25      MisBP:0   MisRate:0.00%    MPKI:0.00
PC:1c8a8     Total:15503      MisBP:0   MisRate:0.00%    MPKI:0.00
PC:1c590     Total:5587      MisBP:0   MisRate:0.00%    MPKI:0.00
PC:1c8ac     Total:1700      MisBP:0   MisRate:0.00%    MPKI:0.00
PC:2d458     Total:66      MisBP:0   MisRate:0.00%    MPKI:0.00
PC:41cce     Total:7675      MisBP:0   MisRate:0.00%    MPKI:0.00
PC:19446     Total:678      MisBP:0   MisRate:0.00%    MPKI:0.00
PC:1f9d8     Total:633      MisBP:0   MisRate:0.00%    MPKI:0.00
PC:2fc9e     Total:251      MisBP:0   MisRate:0.00%    MPKI:0.00
PC:7c204     Total:1      MisBP:0   MisRate:0.00%    MPKI:0.00
PC:3e8a2     Total:6000      MisBP:0   MisRate:0.00%    MPKI:0.00
PC:3f91c     Total:179      MisBP:0   MisRate:0.00%    MPKI:0.00
PC:16830     Total:1515      MisBP:0   MisRate:0.00%    MPKI:0.00
PC:1c8b0     Total:1700      MisBP:0   MisRate:0.00%    MPKI:0.00
PC:2d45c     Total:66      MisBP:0   MisRate:0.00%    MPKI:0.00
PC:18be6     Total:586885      MisBP:0   MisRate:0.00%    MPKI:0.00
PC:41cd2     Total:7381      MisBP:0   MisRate:0.00%    MPKI:0.00
PC:84c32     Total:1036      MisBP:0   MisRate:0.00%    MPKI:0.00
PC:84c22     Total:1074      MisBP:0   MisRate:0.00%    MPKI:0.00
PC:99066     Total:64      MisBP:0   MisRate:0.00%    MPKI:0.00
PC:3dd34     Total:350      MisBP:0   MisRate:0.00%    MPKI:0.00
PC:1667c     Total:9246      MisBP:0   MisRate:0.00%    MPKI:0.00
PC:32a50     Total:135      MisBP:0   MisRate:0.00%    MPKI:0.00
PC:84c28     Total:1071      MisBP:0   MisRate:0.00%    MPKI:0.00
PC:3e59e     Total:1      MisBP:0   MisRate:0.00%    MPKI:0.00
PC:3dd3a     Total:186      MisBP:0   MisRate:0.00%    MPKI:0.00
PC:32a5a     Total:131      MisBP:0   MisRate:0.00%    MPKI:0.00
PC:9904c     Total:64      MisBP:0   MisRate:0.00%    MPKI:0.00
PC:3e5a8     Total:1      MisBP:0   MisRate:0.00%    MPKI:0.00
PC:154bc     Total:3546      MisBP:0   MisRate:0.00%    MPKI:0.00
PC:3dd44     Total:130      MisBP:0   MisRate:0.00%    MPKI:0.00
PC:3f89e     Total:35      MisBP:0   MisRate:0.00%    MPKI:0.00
PC:167b2     Total:12125      MisBP:0   MisRate:0.00%    MPKI:0.00
PC:1b7fe     Total:36992      MisBP:0   MisRate:0.00%    MPKI:0.00
PC:3f8a8     Total:35      MisBP:0   MisRate:0.00%    MPKI:0.00
PC:167bc     Total:14597      MisBP:0   MisRate:0.00%    MPKI:0.00
PC:84bfe     Total:121941      MisBP:0   MisRate:0.00%    MPKI:0.00
PC:48358     Total:29      MisBP:0   MisRate:0.00%    MPKI:0.00
PC:33ae2     Total:138      MisBP:0   MisRate:0.00%    MPKI:0.00
PC:99036     Total:226      MisBP:0   MisRate:0.00%    MPKI:0.00
PC:3dd04     Total:159      MisBP:0   MisRate:0.00%    MPKI:0.00
PC:7c1c4     Total:9      MisBP:0   MisRate:0.00%    MPKI:0.00
PC:3e862     Total:409      MisBP:0   MisRate:0.00%    MPKI:0.00
PC:1f998     Total:4410      MisBP:0   MisRate:0.00%    MPKI:0.00
PC:48a84     Total:313      MisBP:0   MisRate:0.00%    MPKI:0.00
PC:99474     Total:2      MisBP:0   MisRate:0.00%    MPKI:0.00
PC:3f8ae     Total:35      MisBP:0   MisRate:0.00%    MPKI:0.00
PC:325f4     Total:141      MisBP:0   MisRate:0.00%    MPKI:0.00
PC:99042     Total:64      MisBP:0   MisRate:0.00%    MPKI:0.00
PC:3dd10     Total:200      MisBP:0   MisRate:0.00%    MPKI:0.00
PC:47f32     Total:2190      MisBP:0   MisRate:0.00%    MPKI:0.00
PC:9947e     Total:2      MisBP:0   MisRate:0.00%    MPKI:0.00
PC:84c08     Total:121929      MisBP:0   MisRate:0.00%    MPKI:0.00
PC:15492     Total:159610      MisBP:0   MisRate:0.00%    MPKI:0.00
PC:325fe     Total:119      MisBP:0   MisRate:0.00%    MPKI:0.00
PC:32be0     Total:69      MisBP:0   MisRate:0.00%    MPKI:0.00
PC:1c85c     Total:48632      MisBP:0   MisRate:0.00%    MPKI:0.00
PC:1c544     Total:3816      MisBP:0   MisRate:0.00%    MPKI:0.00
PC:3064c     Total:11439      MisBP:0   MisRate:0.00%    MPKI:0.00
PC:30a7e     Total:3      MisBP:0   MisRate:0.00%    MPKI:0.00
PC:1c208     Total:26395      MisBP:0   MisRate:0.00%    MPKI:0.00
PC:1c876     Total:47497      MisBP:0   MisRate:0.00%    MPKI:0.00
PC:1c888     Total:44954      MisBP:0   MisRate:0.00%    MPKI:0.00
PC:1b84e     Total:26880      MisBP:0   MisRate:0.00%    MPKI:0.00
PC:2fc92     Total:186      MisBP:0   MisRate:0.00%    MPKI:0.00
PC:1b81e     Total:36895      MisBP:0   MisRate:0.00%    MPKI:0.00
PC:84db8     Total:167161      MisBP:0   MisRate:0.00%    MPKI:0.00
PC:1c88c     Total:44953      MisBP:0   MisRate:0.00%    MPKI:0.00
PC:3cc6c     Total:366      MisBP:0   MisRate:0.00%    MPKI:0.00
PC:3d09e     Total:456      MisBP:0   MisRate:0.00%    MPKI:0.00
PC:51914     Total:3      MisBP:0   MisRate:0.00%    MPKI:0.00
PC:28828     Total:285      MisBP:0   MisRate:0.00%    MPKI:0.00
PC:1b85a     Total:27287      MisBP:0   MisRate:0.00%    MPKI:0.00
PC:1b428     Total:209      MisBP:0   MisRate:0.00%    MPKI:0.00
PC:1b81a     Total:36895      MisBP:0   MisRate:0.00%    MPKI:0.00
PC:167c2     Total:12438      MisBP:0   MisRate:0.00%    MPKI:0.00
PC:32b96     Total:46      MisBP:0   MisRate:0.00%    MPKI:0.00
PC:995e4     Total:6      MisBP:0   MisRate:0.00%    MPKI:0.00
PC:84d6e     Total:148134      MisBP:0   MisRate:0.00%    MPKI:0.00
PC:1c842     Total:31428      MisBP:0   MisRate:0.00%    MPKI:0.00
PC:167c6     Total:12438      MisBP:0   MisRate:0.00%    MPKI:0.00
PC:1c846     Total:31429      MisBP:0   MisRate:0.00%    MPKI:0.00
PC:30090     Total:4      MisBP:0   MisRate:0.00%    MPKI:0.00
PC:2fcbe     Total:187      MisBP:0   MisRate:0.00%    MPKI:0.00
PC:1b3e8     Total:1956      MisBP:0   MisRate:0.00%    MPKI:0.00
PC:2fc5e     Total:188      MisBP:0   MisRate:0.00%    MPKI:0.00
PC:3f8c4     Total:518      MisBP:0   MisRate:0.00%    MPKI:0.00
PC:167d8     Total:9732      MisBP:0   MisRate:0.00%    MPKI:0.00
PC:1c858     Total:48665      MisBP:0   MisRate:0.00%    MPKI:0.00
PC:1c540     Total:3817      MisBP:0   MisRate:0.00%    MPKI:0.00
PC:48a70     Total:378      MisBP:0   MisRate:0.00%    MPKI:0.00
PC:30094     Total:4      MisBP:0   MisRate:0.00%    MPKI:0.00
PC:3ea6c     Total:9283      MisBP:0   MisRate:0.00%    MPKI:0.00
PC:16856     Total:3542      MisBP:0   MisRate:0.00%    MPKI:0.00
PC:3ea68     Total:9304      MisBP:0   MisRate:0.00%    MPKI:0.00
PC:3f944     Total:3888      MisBP:0   MisRate:0.00%    MPKI:0.00
PC:16858     Total:2787      MisBP:0   MisRate:0.00%    MPKI:0.00
PC:84e04     Total:121286      MisBP:0   MisRate:0.00%    MPKI:0.00
PC:99248     Total:172      MisBP:0   MisRate:0.00%    MPKI:0.00
PC:1be52     Total:2      MisBP:0   MisRate:0.00%    MPKI:0.00
PC:97116     Total:34      MisBP:0   MisRate:0.00%    MPKI:0.00
PC:306c8     Total:360350      MisBP:0   MisRate:0.00%    MPKI:0.00
PC:3f942     Total:3888      MisBP:0   MisRate:0.00%    MPKI:0.00
PC:3f948     Total:2253      MisBP:0   MisRate:0.00%    MPKI:0.00
PC:1685c     Total:2787      MisBP:0   MisRate:0.00%    MPKI:0.00
PC:32c30     Total:21      MisBP:0   MisRate:0.00%    MPKI:0.00
PC:84e08     Total:121301      MisBP:0   MisRate:0.00%    MPKI:0.00
PC:1be56     Total:2      MisBP:0   MisRate:0.00%    MPKI:0.00
PC:9711a     Total:34      MisBP:0   MisRate:0.00%    MPKI:0.00
PC:306cc     Total:180209      MisBP:0   MisRate:0.00%    MPKI:0.00
PC:1c288     Total:26725      MisBP:0   MisRate:0.00%    MPKI:0.00
PC:1c5ba     Total:20      MisBP:0   MisRate:0.00%    MPKI:0.00
PC:2fcd6     Total:191      MisBP:0   MisRate:0.00%    MPKI:0.00
PC:16850     Total:5016      MisBP:0   MisRate:0.00%    MPKI:0.00
PC:41cf2     Total:7231      MisBP:0   MisRate:0.00%    MPKI:0.00
PC:7ad7a     Total:21      MisBP:0   MisRate:0.00%    MPKI:0.00
PC:1b894     Total:10889      MisBP:0   MisRate:0.00%    MPKI:0.00
PC:15976     Total:91392      MisBP:0   MisRate:0.00%    MPKI:0.00
PC:3ea62     Total:9308      MisBP:0   MisRate:0.00%    MPKI:0.00
PC:3f93e     Total:2509      MisBP:0   MisRate:0.00%    MPKI:0.00
PC:84dfe     Total:121290      MisBP:0   MisRate:0.00%    MPKI:0.00
PC:3ea70     Total:9283      MisBP:0   MisRate:0.00%    MPKI:0.00
PC:1be4c     Total:2      MisBP:0   MisRate:0.00%    MPKI:0.00
PC:97110     Total:34      MisBP:0   MisRate:0.00%    MPKI:0.00
PC:1c27e     Total:28868      MisBP:0   MisRate:0.00%    MPKI:0.00
PC:3d41c     Total:3      MisBP:0   MisRate:0.00%    MPKI:0.00
PC:7ad7e     Total:13      MisBP:0   MisRate:0.00%    MPKI:0.00
PC:3e8c8     Total:19910      MisBP:0   MisRate:0.00%    MPKI:0.00
PC:1b898     Total:10889      MisBP:0   MisRate:0.00%    MPKI:0.00
PC:2fcdc     Total:191      MisBP:0   MisRate:0.00%    MPKI:0.00
PC:3ea78     Total:9332      MisBP:0   MisRate:0.00%    MPKI:0.00
PC:32c3a     Total:33      MisBP:0   MisRate:0.00%    MPKI:0.00
PC:84e12     Total:121254      MisBP:0   MisRate:0.00%    MPKI:0.00
PC:16e64     Total:1990      MisBP:0   MisRate:0.00%    MPKI:0.00
PC:3ff50     Total:12394      MisBP:0   MisRate:0.00%    MPKI:0.00
PC:92128     Total:13272      MisBP:0   MisRate:0.00%    MPKI:0.00
PC:4144a     Total:226      MisBP:0   MisRate:0.00%    MPKI:0.00
PC:2cbd4     Total:51      MisBP:0   MisRate:0.00%    MPKI:0.00
PC:1b8aa     Total:10838      MisBP:0   MisRate:0.00%    MPKI:0.00
PC:2fcee     Total:190      MisBP:0   MisRate:0.00%    MPKI:0.00
PC:161ee     Total:30201      MisBP:0   MisRate:0.00%    MPKI:0.00
PC:3f2dc     Total:2      MisBP:0   MisRate:0.00%    MPKI:0.00
PC:161f0     Total:29932      MisBP:0   MisRate:0.00%    MPKI:0.00
PC:3f954     Total:2611      MisBP:0   MisRate:0.00%    MPKI:0.00
PC:16868     Total:1769      MisBP:0   MisRate:0.00%    MPKI:0.00
PC:2d494     Total:232      MisBP:0   MisRate:0.00%    MPKI:0.00
PC:41d0a     Total:8316      MisBP:0   MisRate:0.00%    MPKI:0.00
PC:1fa14     Total:284      MisBP:0   MisRate:0.00%    MPKI:0.00
PC:48b00     Total:428      MisBP:0   MisRate:0.00%    MPKI:0.00
PC:15986     Total:131576      MisBP:0   MisRate:0.00%    MPKI:0.00
PC:84e0c     Total:121257      MisBP:0   MisRate:0.00%    MPKI:0.00
PC:32802     Total:81      MisBP:0   MisRate:0.00%    MPKI:0.00
PC:99250     Total:172      MisBP:0   MisRate:0.00%    MPKI:0.00
PC:1be5a     Total:2      MisBP:0   MisRate:0.00%    MPKI:0.00
PC:9711e     Total:34      MisBP:0   MisRate:0.00%    MPKI:0.00
PC:306d0     Total:178683      MisBP:0   MisRate:0.00%    MPKI:0.00
PC:1b8a4     Total:10845      MisBP:0   MisRate:0.00%    MPKI:0.00
PC:2fce8     Total:190      MisBP:0   MisRate:0.00%    MPKI:0.00
PC:2d478     Total:37724      MisBP:0   MisRate:0.00%    MPKI:0.00
PC:3ea72     Total:9343      MisBP:0   MisRate:0.00%    MPKI:0.00
PC:3f2d6     Total:2      MisBP:0   MisRate:0.00%    MPKI:0.00
PC:161ea     Total:30201      MisBP:0   MisRate:0.00%    MPKI:0.00
PC:16862     Total:2787      MisBP:0   MisRate:0.00%    MPKI:0.00
PC:2d48e     Total:232      MisBP:0   MisRate:0.00%    MPKI:0.00
PC:41d04     Total:8316      MisBP:0   MisRate:0.00%    MPKI:0.00
PC:1598a     Total:131572      MisBP:0   MisRate:0.00%    MPKI:0.00
PC:3ea76     Total:9343      MisBP:0   MisRate:0.00%    MPKI:0.00
PC:3f2b4     Total:111      MisBP:0   MisRate:0.00%    MPKI:0.00
PC:1683c     Total:3600      MisBP:0   MisRate:0.00%    MPKI:0.00
PC:1c8bc     Total:44414      MisBP:0   MisRate:0.00%    MPKI:0.00
PC:3d406     Total:4      MisBP:0   MisRate:0.00%    MPKI:0.00
PC:7ad68     Total:25      MisBP:0   MisRate:0.00%    MPKI:0.00
PC:1f9e8     Total:437      MisBP:0   MisRate:0.00%    MPKI:0.00
PC:48ad4     Total:259      MisBP:0   MisRate:0.00%    MPKI:0.00
PC:3e8b2     Total:522      MisBP:0   MisRate:0.00%    MPKI:0.00
PC:7c3b2     Total:21      MisBP:0   MisRate:0.00%    MPKI:0.00
PC:3ea50     Total:9458      MisBP:0   MisRate:0.00%    MPKI:0.00
PC:161c4     Total:13752      MisBP:0   MisRate:0.00%    MPKI:0.00
PC:161c8     Total:13752      MisBP:0   MisRate:0.00%    MPKI:0.00
PC:1be3a     Total:11      MisBP:0   MisRate:0.00%    MPKI:0.00
PC:306b0     Total:962430      MisBP:0   MisRate:0.00%    MPKI:0.00
PC:1c26c     Total:31868      MisBP:0   MisRate:0.00%    MPKI:0.00
PC:2d46c     Total:66      MisBP:0   MisRate:0.00%    MPKI:0.00
PC:1b884     Total:15835      MisBP:0   MisRate:0.00%    MPKI:0.00
PC:1b452     Total:2034      MisBP:0   MisRate:0.00%    MPKI:0.00
PC:2fcc8     Total:187      MisBP:0   MisRate:0.00%    MPKI:0.00
PC:1f9e4     Total:449      MisBP:0   MisRate:0.00%    MPKI:0.00
PC:7c3aa     Total:23      MisBP:0   MisRate:0.00%    MPKI:0.00
PC:3ea48     Total:95289      MisBP:0   MisRate:0.00%    MPKI:0.00
PC:3f2ac     Total:102      MisBP:0   MisRate:0.00%    MPKI:0.00
PC:161c0     Total:13752      MisBP:0   MisRate:0.00%    MPKI:0.00
PC:16838     Total:3600      MisBP:0   MisRate:0.00%    MPKI:0.00
PC:1c8b8     Total:1695      MisBP:0   MisRate:0.00%    MPKI:0.00
PC:2d464     Total:66      MisBP:0   MisRate:0.00%    MPKI:0.00
PC:18bee     Total:206905      MisBP:0   MisRate:0.00%    MPKI:0.00
PC:41cda     Total:7380      MisBP:0   MisRate:0.00%    MPKI:0.00
PC:7c3b4     Total:21      MisBP:0   MisRate:0.00%    MPKI:0.00
PC:48ad0     Total:259      MisBP:0   MisRate:0.00%    MPKI:0.00
PC:1b87e     Total:17629      MisBP:0   MisRate:0.00%    MPKI:0.00
PC:2fcc2     Total:187      MisBP:0   MisRate:0.00%    MPKI:0.00
PC:7c3ae     Total:21      MisBP:0   MisRate:0.00%    MPKI:0.00
PC:15960     Total:107688      MisBP:0   MisRate:0.00%    MPKI:0.00
PC:3ea4c     Total:9458      MisBP:0   MisRate:0.00%    MPKI:0.00
PC:7cc12     Total:12      MisBP:0   MisRate:0.00%    MPKI:0.00
PC:3f2b0     Total:102      MisBP:0   MisRate:0.00%    MPKI:0.00
PC:7ad74     Total:21      MisBP:0   MisRate:0.00%    MPKI:0.00
PC:3ea58     Total:9458      MisBP:0   MisRate:0.00%    MPKI:0.00
PC:7cc1e     Total:21      MisBP:0   MisRate:0.00%    MPKI:0.00
PC:3f2bc     Total:105      MisBP:0   MisRate:0.00%    MPKI:0.00
PC:161d0     Total:13751      MisBP:0   MisRate:0.00%    MPKI:0.00
PC:7b724     Total:8      MisBP:0   MisRate:0.00%    MPKI:0.00
PC:84df4     Total:124215      MisBP:0   MisRate:0.00%    MPKI:0.00
PC:2d474     Total:66      MisBP:0   MisRate:0.00%    MPKI:0.00
PC:41cea     Total:9038      MisBP:0   MisRate:0.00%    MPKI:0.00
PC:3d412     Total:4      MisBP:0   MisRate:0.00%    MPKI:0.00
PC:1596c     Total:108965      MisBP:0   MisRate:0.00%    MPKI:0.00
PC:7c3be     Total:15      MisBP:0   MisRate:0.00%    MPKI:0.00
PC:15970     Total:108964      MisBP:0   MisRate:0.00%    MPKI:0.00
PC:3ea5c     Total:9458      MisBP:0   MisRate:0.00%    MPKI:0.00
PC:3f2c0     Total:90      MisBP:0   MisRate:0.00%    MPKI:0.00
PC:161d4     Total:13751      MisBP:0   MisRate:0.00%    MPKI:0.00
PC:7b728     Total:60      MisBP:0   MisRate:0.00%    MPKI:0.00
PC:3f938     Total:1968      MisBP:0   MisRate:0.00%    MPKI:0.00
PC:1684c     Total:5016      MisBP:0   MisRate:0.00%    MPKI:0.00
PC:2fccc     Total:191      MisBP:0   MisRate:0.00%    MPKI:0.00
PC:3ea52     Total:9458      MisBP:0   MisRate:0.00%    MPKI:0.00
PC:7cc18     Total:8      MisBP:0   MisRate:0.00%    MPKI:0.00
PC:3f2b6     Total:111      MisBP:0   MisRate:0.00%    MPKI:0.00
PC:161ca     Total:13752      MisBP:0   MisRate:0.00%    MPKI:0.00
PC:16842     Total:764      MisBP:0   MisRate:0.00%    MPKI:0.00
PC:84dee     Total:135777      MisBP:0   MisRate:0.00%    MPKI:0.00
PC:18bf8     Total:1      MisBP:0   MisRate:0.00%    MPKI:0.00
PC:1b888     Total:21890      MisBP:0   MisRate:0.00%    MPKI:0.00
PC:84bf2     Total:124691      MisBP:0   MisRate:0.00%    MPKI:0.00
PC:16846     Total:5017      MisBP:0   MisRate:0.00%    MPKI:0.00
PC:18bfc     Total:1      MisBP:0   MisRate:0.00%    MPKI:0.00
PC:41ce8     Total:3462      MisBP:0   MisRate:0.00%    MPKI:0.00
PC:3d40e     Total:4      MisBP:0   MisRate:0.00%    MPKI:0.00
PC:3e8ba     Total:15607      MisBP:0   MisRate:0.00%    MPKI:0.00
PC:1b88a     Total:21888      MisBP:0   MisRate:0.00%    MPKI:0.00
PC:2fcce     Total:191      MisBP:0   MisRate:0.00%    MPKI:0.00
PC:7c3ba     Total:15      MisBP:0   MisRate:0.00%    MPKI:0.00
PC:1ccba     Total:66687      MisBP:0   MisRate:0.00%    MPKI:0.00
PC:1ccb2     Total:53341      MisBP:0   MisRate:0.00%    MPKI:0.00
PC:1ccb4     Total:53340      MisBP:0   MisRate:0.00%    MPKI:0.00
PC:16d98     Total:2459      MisBP:0   MisRate:0.00%    MPKI:0.00
PC:3fe84     Total:9578      MisBP:0   MisRate:0.00%    MPKI:0.00
PC:3152c     Total:401      MisBP:0   MisRate:0.00%    MPKI:0.00
PC:1ccb6     Total:53340      MisBP:0   MisRate:0.00%    MPKI:0.00
PC:16d9c     Total:2459      MisBP:0   MisRate:0.00%    MPKI:0.00
PC:3fe88     Total:1439      MisBP:0   MisRate:0.00%    MPKI:0.00
PC:31530     Total:401      MisBP:0   MisRate:0.00%    MPKI:0.00
PC:31528     Total:401      MisBP:0   MisRate:0.00%    MPKI:0.00
PC:1c548     Total:3815      MisBP:0   MisRate:0.00%    MPKI:0.00
PC:30a82     Total:3      MisBP:0   MisRate:0.00%    MPKI:0.00
PC:1c20c     Total:26392      MisBP:0   MisRate:0.00%    MPKI:0.00
PC:3f718     Total:136      MisBP:0   MisRate:0.00%    MPKI:0.00
PC:1c54e     Total:3815      MisBP:0   MisRate:0.00%    MPKI:0.00
PC:970a4     Total:62      MisBP:0   MisRate:0.00%    MPKI:0.00
PC:30656     Total:11418      MisBP:0   MisRate:0.00%    MPKI:0.00
PC:30a88     Total:3      MisBP:0   MisRate:0.00%    MPKI:0.00
PC:1ccac     Total:52840      MisBP:0   MisRate:0.00%    MPKI:0.00
PC:3151a     Total:413      MisBP:0   MisRate:0.00%    MPKI:0.00
PC:1cca4     Total:52841      MisBP:0   MisRate:0.00%    MPKI:0.00
PC:16d8a     Total:3656      MisBP:0   MisRate:0.00%    MPKI:0.00
PC:3fe76     Total:835      MisBP:0   MisRate:0.00%    MPKI:0.00
PC:1cca8     Total:52840      MisBP:0   MisRate:0.00%    MPKI:0.00
PC:31520     Total:402      MisBP:0   MisRate:0.00%    MPKI:0.00
PC:1ccaa     Total:52840      MisBP:0   MisRate:0.00%    MPKI:0.00
PC:3fe7a     Total:10128      MisBP:0   MisRate:0.00%    MPKI:0.00
PC:31522     Total:402      MisBP:0   MisRate:0.00%    MPKI:0.00
PC:1c212     Total:26390      MisBP:0   MisRate:0.00%    MPKI:0.00
PC:16d90     Total:2475      MisBP:0   MisRate:0.00%    MPKI:0.00
PC:3fe7c     Total:10106      MisBP:0   MisRate:0.00%    MPKI:0.00
PC:31524     Total:401      MisBP:0   MisRate:0.00%    MPKI:0.00
PC:1ccae     Total:53394      MisBP:0   MisRate:0.00%    MPKI:0.00
PC:16d92     Total:2475      MisBP:0   MisRate:0.00%    MPKI:0.00
PC:3fe7e     Total:10106      MisBP:0   MisRate:0.00%    MPKI:0.00
PC:1ccb0     Total:53394      MisBP:0   MisRate:0.00%    MPKI:0.00
PC:3fe80     Total:9286      MisBP:0   MisRate:0.00%    MPKI:0.00
PC:1ccce     Total:74227      MisBP:0   MisRate:0.00%    MPKI:0.00
PC:1ccc4     Total:52850      MisBP:0   MisRate:0.00%    MPKI:0.00
PC:3153c     Total:398      MisBP:0   MisRate:0.00%    MPKI:0.00
PC:1ccc6     Total:52850      MisBP:0   MisRate:0.00%    MPKI:0.00
PC:16daa     Total:2459      MisBP:0   MisRate:0.00%    MPKI:0.00
PC:3fe96     Total:1439      MisBP:0   MisRate:0.00%    MPKI:0.00
PC:1ccc8     Total:52850      MisBP:0   MisRate:0.00%    MPKI:0.00
PC:31540     Total:385      MisBP:0   MisRate:0.00%    MPKI:0.00
PC:1ccca     Total:52846      MisBP:0   MisRate:0.00%    MPKI:0.00
PC:31544     Total:385      MisBP:0   MisRate:0.00%    MPKI:0.00
PC:3153a     Total:398      MisBP:0   MisRate:0.00%    MPKI:0.00
PC:16db2     Total:2407      MisBP:0   MisRate:0.00%    MPKI:0.00
PC:3fe9e     Total:1436      MisBP:0   MisRate:0.00%    MPKI:0.00
PC:31546     Total:385      MisBP:0   MisRate:0.00%    MPKI:0.00
PC:1ccd0     Total:74227      MisBP:0   MisRate:0.00%    MPKI:0.00
PC:31548     Total:7480      MisBP:0   MisRate:0.00%    MPKI:0.00
PC:1ccd2     Total:74108      MisBP:0   MisRate:0.00%    MPKI:0.00
PC:3fea2     Total:1436      MisBP:0   MisRate:0.00%    MPKI:0.00
PC:1ccd4     Total:74106      MisBP:0   MisRate:0.00%    MPKI:0.00
PC:1c56e     Total:6509      MisBP:0   MisRate:0.00%    MPKI:0.00
PC:3f71c     Total:136      MisBP:0   MisRate:0.00%    MPKI:0.00
PC:970b2     Total:62      MisBP:0   MisRate:0.00%    MPKI:0.00
PC:30664     Total:10968      MisBP:0   MisRate:0.00%    MPKI:0.00
PC:3f72a     Total:136      MisBP:0   MisRate:0.00%    MPKI:0.00
PC:1c562     Total:6625      MisBP:0   MisRate:0.00%    MPKI:0.00
PC:970b8     Total:56      MisBP:0   MisRate:0.00%    MPKI:0.00
PC:3066a     Total:10968      MisBP:0   MisRate:0.00%    MPKI:0.00
PC:1c566     Total:6509      MisBP:0   MisRate:0.00%    MPKI:0.00
PC:3fe72     Total:839      MisBP:0   MisRate:0.00%    MPKI:0.00
PC:970c4     Total:49      MisBP:0   MisRate:0.00%    MPKI:0.00
PC:30676     Total:1031947      MisBP:0   MisRate:0.00%    MPKI:0.00
PC:3fe8e     Total:1439      MisBP:0   MisRate:0.00%    MPKI:0.00
PC:1ccc0     Total:52846      MisBP:0   MisRate:0.00%    MPKI:0.00
PC:31538     Total:398      MisBP:0   MisRate:0.00%    MPKI:0.00
PC:1ccc2     Total:52850      MisBP:0   MisRate:0.00%    MPKI:0.00
PC:16da6     Total:2459      MisBP:0   MisRate:0.00%    MPKI:0.00
PC:3fe92     Total:1439      MisBP:0   MisRate:0.00%    MPKI:0.00
PC:1cdb4     Total:18600      MisBP:0   MisRate:0.00%    MPKI:0.00
PC:1cda8     Total:18607      MisBP:0   MisRate:0.00%    MPKI:0.00
PC:31620     Total:13      MisBP:0   MisRate:0.00%    MPKI:0.00
PC:1cdaa     Total:18605      MisBP:0   MisRate:0.00%    MPKI:0.00
PC:1cdae     Total:18601      MisBP:0   MisRate:0.00%    MPKI:0.00
PC:3ff80     Total:8998      MisBP:0   MisRate:0.00%    MPKI:0.00
PC:9bb16     Total:4      MisBP:0   MisRate:0.00%    MPKI:0.00
PC:72a2a     Total:2517      MisBP:0   MisRate:0.00%    MPKI:0.00
PC:1cdb2     Total:18600      MisBP:0   MisRate:0.00%    MPKI:0.00
PC:3162a     Total:13      MisBP:0   MisRate:0.00%    MPKI:0.00
PC:3161e     Total:13      MisBP:0   MisRate:0.00%    MPKI:0.00
PC:40040     Total:452      MisBP:0   MisRate:0.00%    MPKI:0.00
PC:16f58     Total:8108      MisBP:0   MisRate:0.00%    MPKI:0.00
PC:40044     Total:452      MisBP:0   MisRate:0.00%    MPKI:0.00
PC:16f5c     Total:16198      MisBP:0   MisRate:0.00%    MPKI:0.00
PC:40048     Total:452      MisBP:0   MisRate:0.00%    MPKI:0.00
PC:16f66     Total:8099      MisBP:0   MisRate:0.00%    MPKI:0.00
PC:40052     Total:384      MisBP:0   MisRate:0.00%    MPKI:0.00
PC:16f6a     Total:8087      MisBP:0   MisRate:0.00%    MPKI:0.00
PC:7b956     Total:160      MisBP:0   MisRate:0.00%    MPKI:0.00
PC:51298     Total:14329      MisBP:0   MisRate:0.00%    MPKI:0.00
PC:3ca22     Total:354321      MisBP:0   MisRate:0.00%    MPKI:0.00
PC:285de     Total:13351      MisBP:0   MisRate:0.00%    MPKI:0.00
PC:32800     Total:81      MisBP:0   MisRate:0.00%    MPKI:0.00
PC:41a64     Total:2309      MisBP:0   MisRate:0.00%    MPKI:0.00
PC:2d620     Total:257      MisBP:0   MisRate:0.00%    MPKI:0.00
PC:2da52     Total:94      MisBP:0   MisRate:0.00%    MPKI:0.00
PC:422c8     Total:58      MisBP:0   MisRate:0.00%    MPKI:0.00
PC:191dc     Total:475      MisBP:0   MisRate:0.00%    MPKI:0.00
PC:40056     Total:383      MisBP:0   MisRate:0.00%    MPKI:0.00
PC:14f08     Total:41289      MisBP:0   MisRate:0.00%    MPKI:0.00
PC:3356e     Total:471      MisBP:0   MisRate:0.00%    MPKI:0.00
PC:19258     Total:31953      MisBP:0   MisRate:0.00%    MPKI:0.00
PC:2d69c     Total:759      MisBP:0   MisRate:0.00%    MPKI:0.00
PC:16e86     Total:1091      MisBP:0   MisRate:0.00%    MPKI:0.00
PC:3ff72     Total:9883      MisBP:0   MisRate:0.00%    MPKI:0.00
PC:3161a     Total:13      MisBP:0   MisRate:0.00%    MPKI:0.00
PC:1cda4     Total:18607      MisBP:0   MisRate:0.00%    MPKI:0.00
PC:3f6fa     Total:9378      MisBP:0   MisRate:0.00%    MPKI:0.00
PC:30098     Total:2      MisBP:0   MisRate:0.00%    MPKI:0.00
PC:1b822     Total:36432      MisBP:0   MisRate:0.00%    MPKI:0.00
PC:1b3f0     Total:1828      MisBP:0   MisRate:0.00%    MPKI:0.00
PC:2fc66     Total:188      MisBP:0   MisRate:0.00%    MPKI:0.00
PC:167e0     Total:9734      MisBP:0   MisRate:0.00%    MPKI:0.00
PC:1c860     Total:48626      MisBP:0   MisRate:0.00%    MPKI:0.00
PC:1bb8a     Total:166      MisBP:0   MisRate:0.00%    MPKI:0.00
PC:30400     Total:3081      MisBP:0   MisRate:0.00%    MPKI:0.00
PC:1b824     Total:36432      MisBP:0   MisRate:0.00%    MPKI:0.00
PC:3f4c4     Total:28411      MisBP:0   MisRate:0.00%    MPKI:0.00
PC:1cc94     Total:370432      MisBP:0   MisRate:0.00%    MPKI:0.00
PC:1cc98     Total:52918      MisBP:0   MisRate:0.00%    MPKI:0.00
PC:3fe6a     Total:839      MisBP:0   MisRate:0.00%    MPKI:0.00
PC:31512     Total:413      MisBP:0   MisRate:0.00%    MPKI:0.00
PC:1cc9c     Total:52843      MisBP:0   MisRate:0.00%    MPKI:0.00
PC:31516     Total:413      MisBP:0   MisRate:0.00%    MPKI:0.00
PC:1cca0     Total:52842      MisBP:0   MisRate:0.00%    MPKI:0.00
PC:16d86     Total:3656      MisBP:0   MisRate:0.00%    MPKI:0.00
PC:72b12     Total:23      MisBP:0   MisRate:0.00%    MPKI:0.00
PC:49a14     Total:112      MisBP:0   MisRate:0.00%    MPKI:0.00
PC:72b00     Total:55      MisBP:0   MisRate:0.00%    MPKI:0.00
PC:4005a     Total:383      MisBP:0   MisRate:0.00%    MPKI:0.00
PC:16f76     Total:7941      MisBP:0   MisRate:0.00%    MPKI:0.00
PC:40062     Total:383      MisBP:0   MisRate:0.00%    MPKI:0.00
PC:49a20     Total:408      MisBP:0   MisRate:0.00%    MPKI:0.00
PC:72b0c     Total:23      MisBP:0   MisRate:0.00%    MPKI:0.00
PC:40068     Total:383      MisBP:0   MisRate:0.00%    MPKI:0.00
PC:3154c     Total:3740      MisBP:0   MisRate:0.00%    MPKI:0.00
PC:40072     Total:147      MisBP:0   MisRate:0.00%    MPKI:0.00
PC:72b1c     Total:23      MisBP:0   MisRate:0.00%    MPKI:0.00
PC:1bb82     Total:166      MisBP:0   MisRate:0.00%    MPKI:0.00
PC:303f8     Total:3335      MisBP:0   MisRate:0.00%    MPKI:0.00
PC:163d2     Total:44320      MisBP:0   MisRate:0.00%    MPKI:0.00
PC:3f4be     Total:28411      MisBP:0   MisRate:0.00%    MPKI:0.00
PC:1c85a     Total:48656      MisBP:0   MisRate:0.00%    MPKI:0.00
PC:163d8     Total:43166      MisBP:0   MisRate:0.00%    MPKI:0.00
PC:16890     Total:139      MisBP:0   MisRate:0.00%    MPKI:0.00
PC:1c776     Total:92324      MisBP:0   MisRate:0.00%    MPKI:0.00
PC:30ff0     Total:40      MisBP:0   MisRate:0.00%    MPKI:0.00
PC:1c77a     Total:85087      MisBP:0   MisRate:0.00%    MPKI:0.00
PC:30ff4     Total:27      MisBP:0   MisRate:0.00%    MPKI:0.00
PC:159b4     Total:123552      MisBP:0   MisRate:0.00%    MPKI:0.00
PC:3eaa0     Total:2636      MisBP:0   MisRate:0.00%    MPKI:0.00
PC:7cc66     Total:28      MisBP:0   MisRate:0.00%    MPKI:0.00
PC:3f304     Total:298      MisBP:0   MisRate:0.00%    MPKI:0.00
PC:16218     Total:1207      MisBP:0   MisRate:0.00%    MPKI:0.00
PC:30fec     Total:42      MisBP:0   MisRate:0.00%    MPKI:0.00
PC:32c64     Total:11      MisBP:0   MisRate:0.00%    MPKI:0.00
PC:84e3c     Total:130497      MisBP:0   MisRate:0.00%    MPKI:0.00
PC:1c910     Total:44645      MisBP:0   MisRate:0.00%    MPKI:0.00
PC:1fa3a     Total:193      MisBP:0   MisRate:0.00%    MPKI:0.00
PC:48b26     Total:246      MisBP:0   MisRate:0.00%    MPKI:0.00
PC:159b8     Total:120351      MisBP:0   MisRate:0.00%    MPKI:0.00
PC:3eaa4     Total:2635      MisBP:0   MisRate:0.00%    MPKI:0.00
PC:7cc6a     Total:28      MisBP:0   MisRate:0.00%    MPKI:0.00
PC:1c76a     Total:92422      MisBP:0   MisRate:0.00%    MPKI:0.00
PC:30fda     Total:86      MisBP:0   MisRate:0.00%    MPKI:0.00
PC:1c764     Total:462151      MisBP:0   MisRate:0.00%    MPKI:0.00
PC:1bff8     Total:141825      MisBP:0   MisRate:0.00%    MPKI:0.00
PC:3086e     Total:99      MisBP:0   MisRate:0.00%    MPKI:0.00
PC:30fdc     Total:86      MisBP:0   MisRate:0.00%    MPKI:0.00
PC:1c766     Total:92422      MisBP:0   MisRate:0.00%    MPKI:0.00
PC:1bffc     Total:141823      MisBP:0   MisRate:0.00%    MPKI:0.00
PC:30872     Total:99      MisBP:0   MisRate:0.00%    MPKI:0.00
PC:30fe0     Total:86      MisBP:0   MisRate:0.00%    MPKI:0.00
PC:3f308     Total:4      MisBP:0   MisRate:0.00%    MPKI:0.00
PC:30fe4     Total:89      MisBP:0   MisRate:0.00%    MPKI:0.00
PC:1c76e     Total:92422      MisBP:0   MisRate:0.00%    MPKI:0.00
PC:30878     Total:375      MisBP:0   MisRate:0.00%    MPKI:0.00
PC:1c770     Total:92323      MisBP:0   MisRate:0.00%    MPKI:0.00
PC:30fe8     Total:52      MisBP:0   MisRate:0.00%    MPKI:0.00
PC:1c772     Total:92324      MisBP:0   MisRate:0.00%    MPKI:0.00
PC:30fea     Total:42      MisBP:0   MisRate:0.00%    MPKI:0.00
PC:1c774     Total:92324      MisBP:0   MisRate:0.00%    MPKI:0.00
PC:3f72c     Total:136      MisBP:0   MisRate:0.00%    MPKI:0.00
PC:3eab4     Total:5525      MisBP:0   MisRate:0.00%    MPKI:0.00
PC:32c78     Total:1      MisBP:0   MisRate:0.00%    MPKI:0.00
PC:84e50     Total:124684      MisBP:0   MisRate:0.00%    MPKI:0.00
PC:3d46e     Total:145      MisBP:0   MisRate:0.00%    MPKI:0.00
PC:7add0     Total:15      MisBP:0   MisRate:0.00%    MPKI:0.00
PC:1587c     Total:36489      MisBP:0   MisRate:0.00%    MPKI:0.00
PC:159cc     Total:104936      MisBP:0   MisRate:0.00%    MPKI:0.00
PC:3eab8     Total:5525      MisBP:0   MisRate:0.00%    MPKI:0.00
PC:30718     Total:10553      MisBP:0   MisRate:0.00%    MPKI:0.00
PC:159c8     Total:104936      MisBP:0   MisRate:0.00%    MPKI:0.00
PC:16640     Total:9957      MisBP:0   MisRate:0.00%    MPKI:0.00
PC:15476     Total:172532      MisBP:0   MisRate:0.00%    MPKI:0.00
PC:48352     Total:29      MisBP:0   MisRate:0.00%    MPKI:0.00
PC:33adc     Total:138      MisBP:0   MisRate:0.00%    MPKI:0.00
PC:325e2     Total:109      MisBP:0   MisRate:0.00%    MPKI:0.00
PC:99030     Total:38      MisBP:0   MisRate:0.00%    MPKI:0.00
PC:47f20     Total:926      MisBP:0   MisRate:0.00%    MPKI:0.00
PC:32a1a     Total:1      MisBP:0   MisRate:0.00%    MPKI:0.00
PC:30708     Total:10664      MisBP:0   MisRate:0.00%    MPKI:0.00
PC:1621c     Total:1207      MisBP:0   MisRate:0.00%    MPKI:0.00
PC:3f980     Total:136      MisBP:0   MisRate:0.00%    MPKI:0.00
PC:16894     Total:139      MisBP:0   MisRate:0.00%    MPKI:0.00
PC:1c914     Total:44644      MisBP:0   MisRate:0.00%    MPKI:0.00
PC:3eaa8     Total:5526      MisBP:0   MisRate:0.00%    MPKI:0.00
PC:3f984     Total:136      MisBP:0   MisRate:0.00%    MPKI:0.00
PC:16898     Total:74      MisBP:0   MisRate:0.00%    MPKI:0.00
PC:41d3a     Total:799      MisBP:0   MisRate:0.00%    MPKI:0.00
PC:1c7ec     Total:42143      MisBP:0   MisRate:0.00%    MPKI:0.00
PC:1c2c4     Total:7175      MisBP:0   MisRate:0.00%    MPKI:0.00
PC:159c0     Total:104938      MisBP:0   MisRate:0.00%    MPKI:0.00
PC:3eaac     Total:5526      MisBP:0   MisRate:0.00%    MPKI:0.00
PC:3f988     Total:12      MisBP:0   MisRate:0.00%    MPKI:0.00
PC:1689c     Total:70      MisBP:0   MisRate:0.00%    MPKI:0.00
PC:3070c     Total:10664      MisBP:0   MisRate:0.00%    MPKI:0.00
PC:1c2c8     Total:7174      MisBP:0   MisRate:0.00%    MPKI:0.00
PC:3eab0     Total:5526      MisBP:0   MisRate:0.00%    MPKI:0.00
PC:31562     Total:117      MisBP:0   MisRate:0.00%    MPKI:0.00
PC:16dc6     Total:2086      MisBP:0   MisRate:0.00%    MPKI:0.00
PC:3feb2     Total:1430      MisBP:0   MisRate:0.00%    MPKI:0.00
PC:3155a     Total:3364      MisBP:0   MisRate:0.00%    MPKI:0.00
PC:1cce4     Total:98270      MisBP:0   MisRate:0.00%    MPKI:0.00
PC:16dca     Total:2086      MisBP:0   MisRate:0.00%    MPKI:0.00
PC:3feb6     Total:1259      MisBP:0   MisRate:0.00%    MPKI:0.00
PC:3155e     Total:118      MisBP:0   MisRate:0.00%    MPKI:0.00
PC:1cce8     Total:7215      MisBP:0   MisRate:0.00%    MPKI:0.00
PC:3feba     Total:1259      MisBP:0   MisRate:0.00%    MPKI:0.00
PC:1ac16     Total:98625      MisBP:0   MisRate:0.00%    MPKI:0.00
PC:1ccec     Total:7215      MisBP:0   MisRate:0.00%    MPKI:0.00
PC:16dd0     Total:2086      MisBP:0   MisRate:0.00%    MPKI:0.00
PC:3febc     Total:1259      MisBP:0   MisRate:0.00%    MPKI:0.00
PC:31564     Total:3306      MisBP:0   MisRate:0.00%    MPKI:0.00
PC:1ccee     Total:7215      MisBP:0   MisRate:0.00%    MPKI:0.00
PC:16dd4     Total:2086      MisBP:0   MisRate:0.00%    MPKI:0.00
PC:3fec0     Total:10083      MisBP:0   MisRate:0.00%    MPKI:0.00
PC:31568     Total:3306      MisBP:0   MisRate:0.00%    MPKI:0.00
PC:3feb0     Total:1430      MisBP:0   MisRate:0.00%    MPKI:0.00
PC:1ccd6     Total:148212      MisBP:0   MisRate:0.00%    MPKI:0.00
PC:31550     Total:7480      MisBP:0   MisRate:0.00%    MPKI:0.00
PC:1ccda     Total:74106      MisBP:0   MisRate:0.00%    MPKI:0.00
PC:3feaa     Total:1430      MisBP:0   MisRate:0.00%    MPKI:0.00
PC:1ccdc     Total:74104      MisBP:0   MisRate:0.00%    MPKI:0.00
PC:31554     Total:3734      MisBP:0   MisRate:0.00%    MPKI:0.00
PC:1ccde     Total:74070      MisBP:0   MisRate:0.00%    MPKI:0.00
PC:16dc4     Total:2086      MisBP:0   MisRate:0.00%    MPKI:0.00
PC:1ccf2     Total:7214      MisBP:0   MisRate:0.00%    MPKI:0.00
PC:1cce2     Total:120319      MisBP:0   MisRate:0.00%    MPKI:0.00
PC:15bb4     Total:16909      MisBP:0   MisRate:0.00%    MPKI:0.00
PC:1abf6     Total:101463      MisBP:0   MisRate:0.00%    MPKI:0.00
PC:3ecb6     Total:5265      MisBP:0   MisRate:0.00%    MPKI:0.00
PC:15bca     Total:30379      MisBP:0   MisRate:0.00%    MPKI:0.00
PC:2f482     Total:219      MisBP:0   MisRate:0.00%    MPKI:0.00
PC:1ac0c     Total:98638      MisBP:0   MisRate:0.00%    MPKI:0.00
PC:2f48c     Total:219      MisBP:0   MisRate:0.00%    MPKI:0.00
PC:1c7cc     Total:46410      MisBP:0   MisRate:0.00%    MPKI:0.00
PC:1c7b4     Total:45580      MisBP:0   MisRate:0.00%    MPKI:0.00
PC:1c7b8     Total:45580      MisBP:0   MisRate:0.00%    MPKI:0.00
PC:1c7ba     Total:45580      MisBP:0   MisRate:0.00%    MPKI:0.00
PC:1c7bc     Total:45579      MisBP:0   MisRate:0.00%    MPKI:0.00
PC:1c7be     Total:45391      MisBP:0   MisRate:0.00%    MPKI:0.00
PC:1c7c2     Total:45391      MisBP:0   MisRate:0.00%    MPKI:0.00
PC:1c7c4     Total:45391      MisBP:0   MisRate:0.00%    MPKI:0.00
PC:1c7c6     Total:46410      MisBP:0   MisRate:0.00%    MPKI:0.00
PC:1c7c8     Total:46410      MisBP:0   MisRate:0.00%    MPKI:0.00
PC:1c7b0     Total:45580      MisBP:0   MisRate:0.00%    MPKI:0.00
PC:1c7d0     Total:70843      MisBP:0   MisRate:0.00%    MPKI:0.00
PC:1c7d2     Total:70843      MisBP:0   MisRate:0.00%    MPKI:0.00
PC:1c7d8     Total:42184      MisBP:0   MisRate:0.00%    MPKI:0.00
PC:1c7dc     Total:42182      MisBP:0   MisRate:0.00%    MPKI:0.00
PC:1c7e0     Total:42182      MisBP:0   MisRate:0.00%    MPKI:0.00
PC:1c7e4     Total:42182      MisBP:0   MisRate:0.00%    MPKI:0.00
PC:1c7e8     Total:42182      MisBP:0   MisRate:0.00%    MPKI:0.00
PC:1c7ea     Total:42148      MisBP:0   MisRate:0.00%    MPKI:0.00
PC:3fec8     Total:10083      MisBP:0   MisRate:0.00%    MPKI:0.00
PC:16dd6     Total:2074      MisBP:0   MisRate:0.00%    MPKI:0.00
PC:3fec2     Total:10083      MisBP:0   MisRate:0.00%    MPKI:0.00
PC:1ccf4     Total:7213      MisBP:0   MisRate:0.00%    MPKI:0.00
PC:16dda     Total:2074      MisBP:0   MisRate:0.00%    MPKI:0.00
PC:3fec6     Total:10083      MisBP:0   MisRate:0.00%    MPKI:0.00
PC:3156e     Total:3900      MisBP:0   MisRate:0.00%    MPKI:0.00
PC:1ccf8     Total:404      MisBP:0   MisRate:0.00%    MPKI:0.00
PC:16ddc     Total:2074      MisBP:0   MisRate:0.00%    MPKI:0.00
PC:42320     Total:91      MisBP:0   MisRate:0.00%    MPKI:0.00
PC:1ccfa     Total:403      MisBP:0   MisRate:0.00%    MPKI:0.00
PC:31572     Total:816      MisBP:0   MisRate:0.00%    MPKI:0.00
PC:1ccfc     Total:402      MisBP:0   MisRate:0.00%    MPKI:0.00
[...]
PC:1615e     Total:24292      MisBP:6024   MisRate:24.80%    MPKI:0.02
PC:31ba6     Total:132125      MisBP:6056   MisRate:4.58%    MPKI:0.02
PC:2e26c     Total:97389      MisBP:6081   MisRate:6.24%    MPKI:0.02
PC:18a14     Total:44415      MisBP:6137   MisRate:13.82%    MPKI:0.02
PC:192b4     Total:56454      MisBP:6152   MisRate:10.90%    MPKI:0.02
PC:2fd46     Total:68436      MisBP:6169   MisRate:9.01%    MPKI:0.02
PC:1af18     Total:63033      MisBP:6278   MisRate:9.96%    MPKI:0.02
PC:17ebc     Total:31782      MisBP:6282   MisRate:19.77%    MPKI:0.02
PC:1978a     Total:30289      MisBP:6287   MisRate:20.76%    MPKI:0.02
PC:2cdee     Total:89831      MisBP:6303   MisRate:7.02%    MPKI:0.02
PC:1931c     Total:57778      MisBP:6355   MisRate:11.00%    MPKI:0.02
PC:15d22     Total:30632      MisBP:6390   MisRate:20.86%    MPKI:0.02
PC:2d5d8     Total:61491      MisBP:6407   MisRate:10.42%    MPKI:0.02
PC:31b32     Total:137987      MisBP:6420   MisRate:4.65%    MPKI:0.02
PC:2d67a     Total:64512      MisBP:6461   MisRate:10.02%    MPKI:0.02
PC:3c2d4     Total:61232      MisBP:6470   MisRate:10.57%    MPKI:0.02
PC:1c15c     Total:56492      MisBP:6487   MisRate:11.48%    MPKI:0.02
PC:40936     Total:23132      MisBP:6497   MisRate:28.09%    MPKI:0.02
PC:3f4d2     Total:25927      MisBP:6497   MisRate:25.06%    MPKI:0.02
PC:2fd2c     Total:85816      MisBP:6498   MisRate:7.57%    MPKI:0.02
PC:18b12     Total:37810      MisBP:6548   MisRate:17.32%    MPKI:0.02
PC:1c826     Total:104595      MisBP:6588   MisRate:6.30%    MPKI:0.02
PC:15942     Total:61403      MisBP:6604   MisRate:10.76%    MPKI:0.02
PC:15bea     Total:43076      MisBP:6606   MisRate:15.34%    MPKI:0.02
PC:17eb8     Total:36277      MisBP:6615   MisRate:18.23%    MPKI:0.02
PC:192cc     Total:51672      MisBP:6622   MisRate:12.82%    MPKI:0.02
PC:18fce     Total:62811      MisBP:6640   MisRate:10.57%    MPKI:0.02
PC:2d2c8     Total:17861      MisBP:6673   MisRate:37.36%    MPKI:0.02
PC:18e38     Total:87567      MisBP:6674   MisRate:7.62%    MPKI:0.02
PC:3ec3c     Total:41445      MisBP:6708   MisRate:16.19%    MPKI:0.02
PC:15bc0     Total:25818      MisBP:6728   MisRate:26.06%    MPKI:0.02
PC:19328     Total:58281      MisBP:6733   MisRate:11.55%    MPKI:0.02
PC:31996     Total:118405      MisBP:6779   MisRate:5.73%    MPKI:0.02
PC:2cd68     Total:81416      MisBP:6811   MisRate:8.37%    MPKI:0.02
PC:3c64a     Total:35996      MisBP:6894   MisRate:19.15%    MPKI:0.02
PC:3c660     Total:29510      MisBP:6901   MisRate:23.39%    MPKI:0.02
PC:156fa     Total:85586      MisBP:6977   MisRate:8.15%    MPKI:0.02
PC:3c62a     Total:44188      MisBP:7028   MisRate:15.90%    MPKI:0.02
PC:3c804     Total:83092      MisBP:7044   MisRate:8.48%    MPKI:0.02
PC:19762     Total:38229      MisBP:7078   MisRate:18.51%    MPKI:0.02
PC:4110c     Total:68303      MisBP:7095   MisRate:10.39%    MPKI:0.02
PC:19a82     Total:321605      MisBP:7106   MisRate:2.21%    MPKI:0.02
PC:3c7bc     Total:54669      MisBP:7139   MisRate:13.06%    MPKI:0.02
PC:3ce00     Total:21982      MisBP:7153   MisRate:32.54%    MPKI:0.02
PC:162e0     Total:43927      MisBP:7158   MisRate:16.30%    MPKI:0.02
PC:1acc2     Total:61637      MisBP:7169   MisRate:11.63%    MPKI:0.02
PC:19358     Total:50985      MisBP:7176   MisRate:14.07%    MPKI:0.02
PC:47b0c     Total:50105      MisBP:7191   MisRate:14.35%    MPKI:0.02
PC:3be8a     Total:61921      MisBP:7202   MisRate:11.63%    MPKI:0.02
PC:16198     Total:25951      MisBP:7207   MisRate:27.77%    MPKI:0.02
PC:3cb10     Total:40755      MisBP:7210   MisRate:17.69%    MPKI:0.02
PC:1c04a     Total:81832      MisBP:7219   MisRate:8.82%    MPKI:0.02
PC:15c9c     Total:51584      MisBP:7282   MisRate:14.12%    MPKI:0.02
PC:17eae     Total:41916      MisBP:7357   MisRate:17.55%    MPKI:0.02
PC:197da     Total:69855      MisBP:7412   MisRate:10.61%    MPKI:0.02
PC:2ce78     Total:27335      MisBP:7460   MisRate:27.29%    MPKI:0.02
PC:2ca86     Total:132916      MisBP:7466   MisRate:5.62%    MPKI:0.02
PC:3c5cc     Total:42084      MisBP:7487   MisRate:17.79%    MPKI:0.02
PC:19646     Total:46900      MisBP:7530   MisRate:16.06%    MPKI:0.02
PC:190a6     Total:42081      MisBP:7559   MisRate:17.96%    MPKI:0.02
PC:47b58     Total:49674      MisBP:7572   MisRate:15.24%    MPKI:0.02
PC:2d2be     Total:38253      MisBP:7655   MisRate:20.01%    MPKI:0.02
PC:3c634     Total:49104      MisBP:7734   MisRate:15.75%    MPKI:0.02
PC:1596a     Total:117682      MisBP:7741   MisRate:6.58%    MPKI:0.02
PC:18bec     Total:586445      MisBP:7778   MisRate:1.33%    MPKI:0.03
PC:15e94     Total:26245      MisBP:7784   MisRate:29.66%    MPKI:0.03
PC:154b2     Total:189798      MisBP:7905   MisRate:4.16%    MPKI:0.03
PC:2cda0     Total:69496      MisBP:8045   MisRate:11.58%    MPKI:0.03
PC:2d74a     Total:46179      MisBP:8137   MisRate:17.62%    MPKI:0.03
PC:24ccc     Total:116511      MisBP:8149   MisRate:6.99%    MPKI:0.03
PC:2caae     Total:78264      MisBP:8161   MisRate:10.43%    MPKI:0.03
PC:19364     Total:44386      MisBP:8317   MisRate:18.74%    MPKI:0.03
PC:2d742     Total:61723      MisBP:8326   MisRate:13.49%    MPKI:0.03
PC:2cb22     Total:105672      MisBP:8338   MisRate:7.89%    MPKI:0.03
PC:3ec4e     Total:20879      MisBP:8366   MisRate:40.07%    MPKI:0.03
PC:2d47c     Total:37637      MisBP:8367   MisRate:22.23%    MPKI:0.03
PC:196ea     Total:53508      MisBP:8401   MisRate:15.70%    MPKI:0.03
PC:2d294     Total:170536      MisBP:8422   MisRate:4.94%    MPKI:0.03
PC:15b50     Total:42557      MisBP:8464   MisRate:19.89%    MPKI:0.03
PC:2d688     Total:60655      MisBP:8466   MisRate:13.96%    MPKI:0.03
PC:1ae24     Total:62392      MisBP:8479   MisRate:13.59%    MPKI:0.03
PC:3c264     Total:94372      MisBP:8500   MisRate:9.01%    MPKI:0.03
PC:158ca     Total:67625      MisBP:8514   MisRate:12.59%    MPKI:0.03
PC:2d682     Total:49351      MisBP:8518   MisRate:17.26%    MPKI:0.03
PC:1c200     Total:69277      MisBP:8564   MisRate:12.36%    MPKI:0.03
PC:19748     Total:62709      MisBP:8588   MisRate:13.70%    MPKI:0.03
PC:314ce     Total:165404      MisBP:8610   MisRate:5.21%    MPKI:0.03
PC:3be8e     Total:57640      MisBP:8625   MisRate:14.96%    MPKI:0.03
PC:2ce48     Total:86482      MisBP:8672   MisRate:10.03%    MPKI:0.03
PC:3e748     Total:31434      MisBP:8680   MisRate:27.61%    MPKI:0.03
PC:159ce     Total:104936      MisBP:8847   MisRate:8.43%    MPKI:0.03
PC:18df0     Total:71900      MisBP:8883   MisRate:12.35%    MPKI:0.03
PC:164b4     Total:32224      MisBP:8924   MisRate:27.69%    MPKI:0.03
PC:1accc     Total:68408      MisBP:9046   MisRate:13.22%    MPKI:0.03
PC:18f84     Total:53687      MisBP:9071   MisRate:16.90%    MPKI:0.03
PC:3c298     Total:50476      MisBP:9177   MisRate:18.18%    MPKI:0.03
PC:1973e     Total:62573      MisBP:9240   MisRate:14.77%    MPKI:0.03
PC:28796     Total:133525      MisBP:9319   MisRate:6.98%    MPKI:0.03
PC:286ac     Total:145691      MisBP:9401   MisRate:6.45%    MPKI:0.03
PC:3f4cc     Total:37931      MisBP:9402   MisRate:24.79%    MPKI:0.03
PC:1c0b6     Total:54786      MisBP:9631   MisRate:17.58%    MPKI:0.03
PC:3ce46     Total:45796      MisBP:9733   MisRate:21.25%    MPKI:0.03
PC:2ca4a     Total:56996      MisBP:9828   MisRate:17.24%    MPKI:0.03
PC:47b94     Total:53513      MisBP:9863   MisRate:18.43%    MPKI:0.03
PC:1ad06     Total:92665      MisBP:9930   MisRate:10.72%    MPKI:0.03
PC:319c8     Total:51357      MisBP:9961   MisRate:19.40%    MPKI:0.03
PC:3c7ee     Total:48019      MisBP:10114   MisRate:21.06%    MPKI:0.03
PC:1adcc     Total:89458      MisBP:10195   MisRate:11.40%    MPKI:0.03
PC:159e8     Total:78226      MisBP:10210   MisRate:13.05%    MPKI:0.03
PC:199de     Total:124216      MisBP:10249   MisRate:8.25%    MPKI:0.03
PC:410ee     Total:32780      MisBP:10484   MisRate:31.98%    MPKI:0.03
PC:18f26     Total:77748      MisBP:10662   MisRate:13.71%    MPKI:0.03
PC:2cd76     Total:66294      MisBP:10667   MisRate:16.09%    MPKI:0.03
PC:306ea     Total:1042680      MisBP:10799   MisRate:1.04%    MPKI:0.03
PC:2cb26     Total:109763      MisBP:10862   MisRate:9.90%    MPKI:0.04
PC:15972     Total:107574      MisBP:10899   MisRate:10.13%    MPKI:0.04
PC:1acaa     Total:78011      MisBP:10934   MisRate:14.02%    MPKI:0.04
PC:51358     Total:1259644      MisBP:10985   MisRate:0.87%    MPKI:0.04
PC:159d4     Total:82327      MisBP:11051   MisRate:13.42%    MPKI:0.04
PC:1add0     Total:78439      MisBP:11104   MisRate:14.16%    MPKI:0.04
PC:2cdc8     Total:83483      MisBP:11154   MisRate:13.36%    MPKI:0.04
PC:19a52     Total:60930      MisBP:11201   MisRate:18.38%    MPKI:0.04
PC:2f3f4     Total:98542      MisBP:11272   MisRate:11.44%    MPKI:0.04
PC:1882e     Total:149019      MisBP:11302   MisRate:7.58%    MPKI:0.04
PC:3cff0     Total:41689      MisBP:11369   MisRate:27.27%    MPKI:0.04
PC:47b60     Total:53257      MisBP:11582   MisRate:21.75%    MPKI:0.04
PC:3c7b2     Total:78451      MisBP:11585   MisRate:14.77%    MPKI:0.04
PC:2cd4a     Total:102508      MisBP:11597   MisRate:11.31%    MPKI:0.04
PC:2d5ee     Total:72349      MisBP:11629   MisRate:16.07%    MPKI:0.04
PC:2d576     Total:56715      MisBP:11748   MisRate:20.71%    MPKI:0.04
PC:159f8     Total:69947      MisBP:11847   MisRate:16.94%    MPKI:0.04
PC:3cb1a     Total:50004      MisBP:11853   MisRate:23.70%    MPKI:0.04
PC:15c92     Total:73507      MisBP:12099   MisRate:16.46%    MPKI:0.04
PC:3c7e0     Total:73428      MisBP:12155   MisRate:16.55%    MPKI:0.04
PC:3199e     Total:152328      MisBP:12257   MisRate:8.05%    MPKI:0.04
PC:3bfc4     Total:124962      MisBP:12307   MisRate:9.85%    MPKI:0.04
PC:2caf6     Total:86100      MisBP:12308   MisRate:14.30%    MPKI:0.04
PC:199e8     Total:137878      MisBP:12345   MisRate:8.95%    MPKI:0.04
PC:1c77e     Total:85087      MisBP:12400   MisRate:14.57%    MPKI:0.04
PC:28788     Total:147086      MisBP:12528   MisRate:8.52%    MPKI:0.04
PC:2cca2     Total:83426      MisBP:12612   MisRate:15.12%    MPKI:0.04
PC:197f4     Total:69213      MisBP:12660   MisRate:18.29%    MPKI:0.04
PC:3c692     Total:69529      MisBP:12685   MisRate:18.24%    MPKI:0.04
PC:1acb8     Total:59785      MisBP:12694   MisRate:21.23%    MPKI:0.04
PC:1c82c     Total:144395      MisBP:12806   MisRate:8.87%    MPKI:0.04
PC:1acf6     Total:53263      MisBP:12913   MisRate:24.24%    MPKI:0.04
PC:3cfa6     Total:152404      MisBP:12993   MisRate:8.53%    MPKI:0.04
PC:17de6     Total:69182      MisBP:13094   MisRate:18.93%    MPKI:0.04
PC:17e74     Total:48757      MisBP:13220   MisRate:27.11%    MPKI:0.04
PC:19a6c     Total:64794      MisBP:13250   MisRate:20.45%    MPKI:0.04
PC:18eba     Total:79823      MisBP:13287   MisRate:16.65%    MPKI:0.04
PC:159fe     Total:79367      MisBP:13296   MisRate:16.75%    MPKI:0.04
PC:41130     Total:43134      MisBP:13394   MisRate:31.05%    MPKI:0.04
PC:1ad0c     Total:86092      MisBP:13411   MisRate:15.58%    MPKI:0.04
PC:513b0     Total:140499      MisBP:13821   MisRate:9.84%    MPKI:0.04
PC:159ee     Total:75860      MisBP:13829   MisRate:18.23%    MPKI:0.04
PC:288b8     Total:189059      MisBP:13980   MisRate:7.39%    MPKI:0.05
PC:1b830     Total:38098      MisBP:14320   MisRate:37.59%    MPKI:0.05
PC:319bc     Total:148635      MisBP:14452   MisRate:9.72%    MPKI:0.05
PC:156b6     Total:227853      MisBP:14674   MisRate:6.44%    MPKI:0.05
PC:19614     Total:253876      MisBP:15153   MisRate:5.97%    MPKI:0.05
PC:17fcc     Total:130289      MisBP:15153   MisRate:11.63%    MPKI:0.05
PC:15a08     Total:89270      MisBP:15163   MisRate:16.99%    MPKI:0.05
PC:2d73a     Total:154085      MisBP:15209   MisRate:9.87%    MPKI:0.05
PC:2fd58     Total:90239      MisBP:15214   MisRate:16.86%    MPKI:0.05
PC:2cc6c     Total:86053      MisBP:15277   MisRate:17.75%    MPKI:0.05
PC:2cc64     Total:182595      MisBP:15419   MisRate:8.44%    MPKI:0.05
PC:18e00     Total:208596      MisBP:15429   MisRate:7.40%    MPKI:0.05
PC:176c2     Total:105766      MisBP:15681   MisRate:14.83%    MPKI:0.05
PC:2ca8c     Total:127332      MisBP:15771   MisRate:12.39%    MPKI:0.05
PC:1acd6     Total:115214      MisBP:15828   MisRate:13.74%    MPKI:0.05
PC:18d56     Total:92626      MisBP:15964   MisRate:17.23%    MPKI:0.05
PC:18d72     Total:83325      MisBP:15970   MisRate:19.17%    MPKI:0.05
PC:2cc86     Total:303579      MisBP:16247   MisRate:5.35%    MPKI:0.05
PC:1aca0     Total:110108      MisBP:16325   MisRate:14.83%    MPKI:0.05
PC:15a0e     Total:97497      MisBP:16403   MisRate:16.82%    MPKI:0.05
PC:192e0     Total:135521      MisBP:16803   MisRate:12.40%    MPKI:0.05
PC:18dfa     Total:103939      MisBP:16973   MisRate:16.33%    MPKI:0.05
PC:15950     Total:70280      MisBP:17092   MisRate:24.32%    MPKI:0.06
PC:9e50c     Total:479051      MisBP:17379   MisRate:3.63%    MPKI:0.06
PC:1925a     Total:122731      MisBP:17705   MisRate:14.43%    MPKI:0.06
PC:512ba     Total:200725      MisBP:17911   MisRate:8.92%    MPKI:0.06
PC:1576e     Total:93027      MisBP:18208   MisRate:19.57%    MPKI:0.06
PC:512ac     Total:348412      MisBP:18254   MisRate:5.24%    MPKI:0.06
PC:14e10     Total:76394      MisBP:18316   MisRate:23.98%    MPKI:0.06
PC:2d29e     Total:159564      MisBP:18385   MisRate:11.52%    MPKI:0.06
PC:1c12c     Total:137232      MisBP:18463   MisRate:13.45%    MPKI:0.06
PC:2d2ae     Total:99320      MisBP:18873   MisRate:19.00%    MPKI:0.06
PC:1973c     Total:125417      MisBP:19076   MisRate:15.21%    MPKI:0.06
PC:1acbc     Total:86108      MisBP:19222   MisRate:22.32%    MPKI:0.06
PC:512b6     Total:243166      MisBP:19348   MisRate:7.96%    MPKI:0.06
PC:3c220     Total:369815      MisBP:19410   MisRate:5.25%    MPKI:0.06
PC:199dc     Total:169115      MisBP:19432   MisRate:11.49%    MPKI:0.06
PC:3cfac     Total:140833      MisBP:19919   MisRate:14.14%    MPKI:0.06
PC:154ac     Total:184138      MisBP:20108   MisRate:10.92%    MPKI:0.06
PC:17dac     Total:85412      MisBP:20180   MisRate:23.63%    MPKI:0.07
PC:18f6a     Total:176449      MisBP:20185   MisRate:11.44%    MPKI:0.07
PC:1c7d4     Total:70840      MisBP:20273   MisRate:28.62%    MPKI:0.07
PC:3bfda     Total:151442      MisBP:20361   MisRate:13.44%    MPKI:0.07
PC:192ac     Total:135029      MisBP:20382   MisRate:15.09%    MPKI:0.07
PC:1ace0     Total:125157      MisBP:20427   MisRate:16.32%    MPKI:0.07
PC:14e64     Total:145526      MisBP:20561   MisRate:14.13%    MPKI:0.07
PC:18d76     Total:91753      MisBP:20689   MisRate:22.55%    MPKI:0.07
PC:15b40     Total:83901      MisBP:20728   MisRate:24.71%    MPKI:0.07
PC:19754     Total:133814      MisBP:20774   MisRate:15.52%    MPKI:0.07
PC:1c01e     Total:128617      MisBP:20821   MisRate:16.19%    MPKI:0.07
PC:18d6a     Total:71258      MisBP:20863   MisRate:29.28%    MPKI:0.07
PC:2e870     Total:211693      MisBP:20921   MisRate:9.88%    MPKI:0.07
PC:2893e     Total:426763      MisBP:21659   MisRate:5.08%    MPKI:0.07
PC:1b7f4     Total:63711      MisBP:21920   MisRate:34.41%    MPKI:0.07
PC:513c2     Total:125657      MisBP:21952   MisRate:17.47%    MPKI:0.07
PC:1aca4     Total:95989      MisBP:22471   MisRate:23.41%    MPKI:0.07
PC:1595a     Total:88761      MisBP:22999   MisRate:25.91%    MPKI:0.07
PC:15964     Total:107688      MisBP:23118   MisRate:21.47%    MPKI:0.07
PC:18d4c     Total:108452      MisBP:23195   MisRate:21.39%    MPKI:0.07
PC:15a1e     Total:71337      MisBP:23429   MisRate:32.84%    MPKI:0.08
PC:3ca14     Total:208386      MisBP:24464   MisRate:11.74%    MPKI:0.08
PC:14fb8     Total:531855      MisBP:24579   MisRate:4.62%    MPKI:0.08
PC:1c088     Total:77343      MisBP:25353   MisRate:32.78%    MPKI:0.08
PC:1c1d2     Total:111807      MisBP:25405   MisRate:22.72%    MPKI:0.08
PC:14ea4     Total:155655      MisBP:25522   MisRate:16.40%    MPKI:0.08
PC:28718     Total:171521      MisBP:26007   MisRate:15.16%    MPKI:0.08
PC:30696     Total:1003269      MisBP:26753   MisRate:2.67%    MPKI:0.09
PC:15a16     Total:78899      MisBP:26846   MisRate:34.03%    MPKI:0.09
PC:3bfc6     Total:124850      MisBP:27188   MisRate:21.78%    MPKI:0.09
PC:14ee6     Total:157658      MisBP:27651   MisRate:17.54%    MPKI:0.09
PC:19314     Total:135995      MisBP:28652   MisRate:21.07%    MPKI:0.09
PC:18dde     Total:87854      MisBP:29166   MisRate:33.20%    MPKI:0.09
PC:14fa8     Total:114880      MisBP:29278   MisRate:25.49%    MPKI:0.09
PC:28644     Total:187229      MisBP:30217   MisRate:16.14%    MPKI:0.10
PC:3ca34     Total:202923      MisBP:30249   MisRate:14.91%    MPKI:0.10
PC:155e6     Total:153366      MisBP:30356   MisRate:19.79%    MPKI:0.10
PC:18cde     Total:187822      MisBP:30436   MisRate:16.20%    MPKI:0.10
PC:2ca90     Total:151624      MisBP:30597   MisRate:20.18%    MPKI:0.10
PC:1bfe8     Total:185958      MisBP:30622   MisRate:16.47%    MPKI:0.10
PC:14f26     Total:165918      MisBP:30684   MisRate:18.49%    MPKI:0.10
PC:199f6     Total:209930      MisBP:32012   MisRate:15.25%    MPKI:0.10
PC:3ca0a     Total:245269      MisBP:32520   MisRate:13.26%    MPKI:0.10
PC:2d2a2     Total:182850      MisBP:32892   MisRate:17.99%    MPKI:0.11
PC:154a2     Total:150039      MisBP:32910   MisRate:21.93%    MPKI:0.11
PC:2cc8c     Total:291187      MisBP:33343   MisRate:11.45%    MPKI:0.11
PC:157ba     Total:94314      MisBP:33737   MisRate:35.77%    MPKI:0.11
PC:1bfca     Total:189780      MisBP:34054   MisRate:17.94%    MPKI:0.11
PC:14f62     Total:172698      MisBP:34584   MisRate:20.03%    MPKI:0.11
PC:2cc9c     Total:346348      MisBP:34625   MisRate:10.00%    MPKI:0.11
PC:3c224     Total:385647      MisBP:34837   MisRate:9.03%    MPKI:0.11
PC:3bf76     Total:682871      MisBP:35546   MisRate:5.21%    MPKI:0.11
PC:3c73a     Total:230400      MisBP:35627   MisRate:15.46%    MPKI:0.11
PC:3c6e4     Total:146601      MisBP:36537   MisRate:24.92%    MPKI:0.12
PC:18d3e     Total:125576      MisBP:36704   MisRate:29.23%    MPKI:0.12
PC:1bfe2     Total:222730      MisBP:37089   MisRate:16.65%    MPKI:0.12
PC:3bf88     Total:98721      MisBP:37210   MisRate:37.69%    MPKI:0.12
PC:287d4     Total:154114      MisBP:37718   MisRate:24.47%    MPKI:0.12
PC:1bf88     Total:108725      MisBP:38427   MisRate:35.34%    MPKI:0.12
PC:14fb2     Total:493534      MisBP:39023   MisRate:7.91%    MPKI:0.13
PC:306c2     Total:928609      MisBP:39386   MisRate:4.24%    MPKI:0.13
PC:18bb2     Total:247632      MisBP:40175   MisRate:16.22%    MPKI:0.13
PC:51368     Total:1048060      MisBP:44087   MisRate:4.21%    MPKI:0.14
PC:156e4     Total:313186      MisBP:45438   MisRate:14.51%    MPKI:0.15
PC:18d34     Total:171088      MisBP:45622   MisRate:26.67%    MPKI:0.15
PC:24cc8     Total:144546      MisBP:45923   MisRate:31.77%    MPKI:0.15
PC:1bfc4     Total:222776      MisBP:48621   MisRate:21.83%    MPKI:0.16
PC:3ca32     Total:329958      MisBP:48666   MisRate:14.75%    MPKI:0.16
PC:84c10     Total:121845      MisBP:53371   MisRate:43.80%    MPKI:0.17
PC:28602     Total:1910118      MisBP:53585   MisRate:2.81%    MPKI:0.17
PC:156a4     Total:285423      MisBP:53718   MisRate:18.82%    MPKI:0.17
PC:1bfa8     Total:176889      MisBP:58012   MisRate:32.80%    MPKI:0.19
PC:188ca     Total:263036      MisBP:61436   MisRate:23.36%    MPKI:0.20
PC:18bda     Total:527217      MisBP:61734   MisRate:11.71%    MPKI:0.20
PC:17694     Total:1730048      MisBP:66203   MisRate:3.83%    MPKI:0.21
PC:51360     Total:1259695      MisBP:66345   MisRate:5.27%    MPKI:0.21
PC:306c6     Total:917007      MisBP:71344   MisRate:7.78%    MPKI:0.23
PC:18bde     Total:586933      MisBP:83638   MisRate:14.25%    MPKI:0.27
PC:3bf7c     Total:650054      MisBP:93183   MisRate:14.33%    MPKI:0.30
PC:2866a     Total:1895628      MisBP:105002   MisRate:5.54%    MPKI:0.34
PC:1a934     Total:543551      MisBP:156536   MisRate:28.80%    MPKI:0.50
Totfetch:635511656  TotInsts:310000001  TotMis : inf%   MPKI : 21.50
=============finish sim!!!!!!=============
Done running SimPoint!
