Global frequency set at 1000000000000 ticks per second
 Register [printBranch()] ExitCallback !!!!!!! 
gem5 Simulator System.  https://www.gem5.org
gem5 is copyrighted software; use the --copyright option for details.

gem5 version 22.0.0.2
gem5 compiled Sep  7 2022 00:42:18
gem5 started Sep  7 2022 01:25:58
gem5 executing on a100, pid 2711942
command line: /data/zxf/gem5/gem5-prof/build/ARM/gem5.fast --outdir=/data/zxf/checkpoint/spec2006/429.mcf/prof/mcf_ckp_1 /data/zxf/gem5/gem5-prof/configs/example/se.py --cpu-type O3CPU --cpu-clock 1GHz --num-cpu 1 --l1d-hwp-type=BOPPrefetcher --caches --l2cache --l1i_size 32kB --l1d_size 32kB --l2_size 1MB --l1i_assoc 8 --l1d_assoc 8 --l2_assoc 16 --cacheline_size 64 --mem-type DDR3_2133_8x8 --mem-size 16GB --restore-simpoint-checkpoint -r 1 --checkpoint-dir /data/zxf/checkpoint/spec2006/429.mcf/ckpt -c mcf_base.gcc41-64bit -o inp.in

info: Standard input is not a terminal, disabling listeners.
Resuming from /data/zxf/checkpoint/spec2006/429.mcf/ckpt/cpt.simpoint_00_inst_113990000000_weight_0.006275_interval_300000000_warmup_10000000
Resuming from SimPoint #0, start_inst:113990000000, weight:0.006275, interval:300000000, warmup:10000000
Switch at curTick count:10000
Switched CPUS @ tick 66707369260500
[(<m5.objects.ArmCPU.ArmAtomicSimpleCPU object at 0x7fc4ee1d0bb0>, <m5.objects.ArmCPU.ArmO3CPU object at 0x7fc4ee1e8e20>)]
switching cpus



+++++++++++++++++++++++++zxf print simpoint+++++++++++++++++++++++++++
Warmed up! Dumping and resetting stats!


=============start sim!!!!!!=============
simplex iterations         : 2591718
PC:162ce     Total:1      MisBP:0   MisRate:0.00%    MPKI:0.00
PC:18d38     Total:3      MisBP:0   MisRate:0.00%    MPKI:0.00
PC:18d34     Total:27      MisBP:0   MisRate:0.00%    MPKI:0.00
PC:2eb0e     Total:2      MisBP:0   MisRate:0.00%    MPKI:0.00
PC:2eb72     Total:2      MisBP:0   MisRate:0.00%    MPKI:0.00
PC:168c0     Total:1      MisBP:0   MisRate:0.00%    MPKI:0.00
PC:5462c     Total:6      MisBP:0   MisRate:0.00%    MPKI:0.00
PC:30a58     Total:2      MisBP:0   MisRate:0.00%    MPKI:0.00
PC:162d2     Total:6      MisBP:0   MisRate:0.00%    MPKI:0.00
PC:217c0     Total:21      MisBP:0   MisRate:0.00%    MPKI:0.00
PC:30a54     Total:2      MisBP:0   MisRate:0.00%    MPKI:0.00
PC:2eb16     Total:7      MisBP:0   MisRate:0.00%    MPKI:0.00
PC:217bc     Total:22      MisBP:0   MisRate:0.00%    MPKI:0.00
PC:2eb10     Total:2      MisBP:0   MisRate:0.00%    MPKI:0.00
PC:162ca     Total:1      MisBP:0   MisRate:0.00%    MPKI:0.00
PC:217b8     Total:23      MisBP:0   MisRate:0.00%    MPKI:0.00
PC:217b4     Total:46      MisBP:0   MisRate:0.00%    MPKI:0.00
PC:2e5ba     Total:1      MisBP:0   MisRate:0.00%    MPKI:0.00
PC:30a8e     Total:1      MisBP:0   MisRate:0.00%    MPKI:0.00
PC:2f824     Total:1      MisBP:0   MisRate:0.00%    MPKI:0.00
PC:10934     Total:2      MisBP:0   MisRate:0.00%    MPKI:0.00
PC:18d40     Total:3      MisBP:0   MisRate:0.00%    MPKI:0.00
PC:217d6     Total:21      MisBP:0   MisRate:0.00%    MPKI:0.00
PC:2eb28     Total:9      MisBP:0   MisRate:0.00%    MPKI:0.00
PC:1e95c     Total:1      MisBP:0   MisRate:0.00%    MPKI:0.00
PC:2eb26     Total:9      MisBP:0   MisRate:0.00%    MPKI:0.00
PC:1e95a     Total:1      MisBP:0   MisRate:0.00%    MPKI:0.00
PC:5463c     Total:3      MisBP:0   MisRate:0.00%    MPKI:0.00
PC:217d0     Total:21      MisBP:0   MisRate:0.00%    MPKI:0.00
PC:54638     Total:9      MisBP:0   MisRate:0.00%    MPKI:0.00
PC:217cc     Total:21      MisBP:0   MisRate:0.00%    MPKI:0.00
PC:2eb1e     Total:8      MisBP:0   MisRate:0.00%    MPKI:0.00
PC:18a1a     Total:1      MisBP:0   MisRate:0.00%    MPKI:0.00
PC:1e952     Total:2      MisBP:0   MisRate:0.00%    MPKI:0.00
PC:18d3e     Total:3      MisBP:0   MisRate:0.00%    MPKI:0.00
PC:54634     Total:6      MisBP:0   MisRate:0.00%    MPKI:0.00
PC:30a60     Total:3      MisBP:0   MisRate:0.00%    MPKI:0.00
PC:162da     Total:6      MisBP:0   MisRate:0.00%    MPKI:0.00
PC:217c8     Total:21      MisBP:0   MisRate:0.00%    MPKI:0.00
PC:54630     Total:24      MisBP:0   MisRate:0.00%    MPKI:0.00
PC:30a5c     Total:2      MisBP:0   MisRate:0.00%    MPKI:0.00
PC:217c4     Total:21      MisBP:0   MisRate:0.00%    MPKI:0.00
PC:18d96     Total:3      MisBP:0   MisRate:0.00%    MPKI:0.00
PC:2eb44     Total:66      MisBP:0   MisRate:0.00%    MPKI:0.00
PC:2eb40     Total:30      MisBP:0   MisRate:0.00%    MPKI:0.00
PC:18d62     Total:1      MisBP:0   MisRate:0.00%    MPKI:0.00
PC:1e974     Total:1      MisBP:0   MisRate:0.00%    MPKI:0.00
PC:2eb3e     Total:11      MisBP:0   MisRate:0.00%    MPKI:0.00
PC:2eb3a     Total:11      MisBP:0   MisRate:0.00%    MPKI:0.00
PC:18d5c     Total:1      MisBP:0   MisRate:0.00%    MPKI:0.00
PC:2eb78     Total:2      MisBP:0   MisRate:0.00%    MPKI:0.00
PC:18d9a     Total:3      MisBP:0   MisRate:0.00%    MPKI:0.00
PC:2eb74     Total:2      MisBP:0   MisRate:0.00%    MPKI:0.00
PC:30ca2     Total:1      MisBP:0   MisRate:0.00%    MPKI:0.00
PC:2eb6e     Total:2      MisBP:0   MisRate:0.00%    MPKI:0.00
PC:168bc     Total:2      MisBP:0   MisRate:0.00%    MPKI:0.00
PC:2eb6a     Total:2      MisBP:0   MisRate:0.00%    MPKI:0.00
PC:168b8     Total:2      MisBP:0   MisRate:0.00%    MPKI:0.00
PC:21816     Total:5      MisBP:0   MisRate:0.00%    MPKI:0.00
PC:2eb66     Total:2      MisBP:0   MisRate:0.00%    MPKI:0.00
PC:168b4     Total:2      MisBP:0   MisRate:0.00%    MPKI:0.00
PC:18d88     Total:3      MisBP:0   MisRate:0.00%    MPKI:0.00
PC:21812     Total:20      MisBP:0   MisRate:0.00%    MPKI:0.00
PC:1959c     Total:1      MisBP:0   MisRate:0.00%    MPKI:0.00
PC:2eb08     Total:2      MisBP:0   MisRate:0.00%    MPKI:0.00
PC:30a4a     Total:2      MisBP:0   MisRate:0.00%    MPKI:0.00
PC:2f7e0     Total:1      MisBP:0   MisRate:0.00%    MPKI:0.00
PC:162c4     Total:2      MisBP:0   MisRate:0.00%    MPKI:0.00
PC:217b2     Total:23      MisBP:0   MisRate:0.00%    MPKI:0.00
PC:162c0     Total:1      MisBP:0   MisRate:0.00%    MPKI:0.00
PC:217ae     Total:3      MisBP:0   MisRate:0.00%    MPKI:0.00
PC:2eb02     Total:2      MisBP:0   MisRate:0.00%    MPKI:0.00
PC:217a4     Total:1      MisBP:0   MisRate:0.00%    MPKI:0.00
PC:2eaf8     Total:2      MisBP:0   MisRate:0.00%    MPKI:0.00
PC:30a6e     Total:2      MisBP:0   MisRate:0.00%    MPKI:0.00
PC:21792     Total:1      MisBP:0   MisRate:0.00%    MPKI:0.00
PC:2f6ec     Total:3      MisBP:0   MisRate:0.00%    MPKI:0.00
PC:5442c     Total:1      MisBP:0   MisRate:0.00%    MPKI:0.00
PC:10912     Total:2      MisBP:0   MisRate:0.00%    MPKI:0.00
PC:189f8     Total:1      MisBP:0   MisRate:0.00%    MPKI:0.00
PC:30caa     Total:1      MisBP:0   MisRate:0.00%    MPKI:0.00
PC:2178a     Total:1      MisBP:0   MisRate:0.00%    MPKI:0.00
PC:2eade     Total:2      MisBP:0   MisRate:0.00%    MPKI:0.00
PC:1090a     Total:3      MisBP:0   MisRate:0.00%    MPKI:0.00
PC:1805a     Total:1      MisBP:0   MisRate:0.00%    MPKI:0.00
PC:30e88     Total:1      MisBP:0   MisRate:0.00%    MPKI:0.00
PC:30e86     Total:1      MisBP:0   MisRate:0.00%    MPKI:0.00
PC:30e84     Total:1      MisBP:0   MisRate:0.00%    MPKI:0.00
PC:30e80     Total:1      MisBP:0   MisRate:0.00%    MPKI:0.00
PC:30efa     Total:1      MisBP:0   MisRate:0.00%    MPKI:0.00
PC:30ef6     Total:1      MisBP:0   MisRate:0.00%    MPKI:0.00
PC:18066     Total:2      MisBP:0   MisRate:0.00%    MPKI:0.00
PC:30ef2     Total:1      MisBP:0   MisRate:0.00%    MPKI:0.00
PC:1805e     Total:2      MisBP:0   MisRate:0.00%    MPKI:0.00
PC:30eea     Total:1      MisBP:0   MisRate:0.00%    MPKI:0.00
PC:30e8a     Total:1      MisBP:0   MisRate:0.00%    MPKI:0.00
PC:30ee6     Total:1      MisBP:0   MisRate:0.00%    MPKI:0.00
PC:30edc     Total:1      MisBP:0   MisRate:0.00%    MPKI:0.00
PC:1804a     Total:1      MisBP:0   MisRate:0.00%    MPKI:0.00
PC:30ed6     Total:1      MisBP:0   MisRate:0.00%    MPKI:0.00
PC:30e7e     Total:2      MisBP:0   MisRate:0.00%    MPKI:0.00
PC:30e7a     Total:1      MisBP:0   MisRate:0.00%    MPKI:0.00
PC:30e76     Total:1      MisBP:0   MisRate:0.00%    MPKI:0.00
PC:30e74     Total:1      MisBP:0   MisRate:0.00%    MPKI:0.00
PC:30e70     Total:1      MisBP:0   MisRate:0.00%    MPKI:0.00
PC:30042     Total:1      MisBP:0   MisRate:0.00%    MPKI:0.00
PC:2edee     Total:1      MisBP:0   MisRate:0.00%    MPKI:0.00
PC:2f7aa     Total:1      MisBP:0   MisRate:0.00%    MPKI:0.00
PC:2f7a8     Total:1      MisBP:0   MisRate:0.00%    MPKI:0.00
PC:30052     Total:1      MisBP:0   MisRate:0.00%    MPKI:0.00
PC:2ede8     Total:1      MisBP:0   MisRate:0.00%    MPKI:0.00
PC:30050     Total:1      MisBP:0   MisRate:0.00%    MPKI:0.00
PC:3004c     Total:1      MisBP:0   MisRate:0.00%    MPKI:0.00
PC:2ede2     Total:1      MisBP:0   MisRate:0.00%    MPKI:0.00
PC:2edde     Total:1      MisBP:0   MisRate:0.00%    MPKI:0.00
PC:30046     Total:1      MisBP:0   MisRate:0.00%    MPKI:0.00
PC:30e6c     Total:1      MisBP:0   MisRate:0.00%    MPKI:0.00
PC:30eaa     Total:1      MisBP:0   MisRate:0.00%    MPKI:0.00
PC:30ea6     Total:1      MisBP:0   MisRate:0.00%    MPKI:0.00
PC:30e9e     Total:1      MisBP:0   MisRate:0.00%    MPKI:0.00
PC:30e9c     Total:1      MisBP:0   MisRate:0.00%    MPKI:0.00
PC:30e9a     Total:1      MisBP:0   MisRate:0.00%    MPKI:0.00
PC:30e96     Total:1      MisBP:0   MisRate:0.00%    MPKI:0.00
PC:30e94     Total:1      MisBP:0   MisRate:0.00%    MPKI:0.00
PC:30e90     Total:1      MisBP:0   MisRate:0.00%    MPKI:0.00
PC:30e8c     Total:1      MisBP:0   MisRate:0.00%    MPKI:0.00
PC:1e968     Total:1      MisBP:0   MisRate:0.00%    MPKI:0.00
PC:168ca     Total:1      MisBP:0   MisRate:0.00%    MPKI:0.00
PC:18d9e     Total:3      MisBP:0   MisRate:0.00%    MPKI:0.00
PC:2eb7a     Total:1      MisBP:0   MisRate:0.00%    MPKI:0.00
PC:168c8     Total:1      MisBP:0   MisRate:0.00%    MPKI:0.00
PC:2eb38     Total:10      MisBP:0   MisRate:0.00%    MPKI:0.00
PC:18d5a     Total:1      MisBP:0   MisRate:0.00%    MPKI:0.00
PC:1e96c     Total:1      MisBP:0   MisRate:0.00%    MPKI:0.00
PC:2eb36     Total:10      MisBP:0   MisRate:0.00%    MPKI:0.00
PC:2eb34     Total:10      MisBP:0   MisRate:0.00%    MPKI:0.00
PC:18d56     Total:1      MisBP:0   MisRate:0.00%    MPKI:0.00
PC:2eb7c     Total:1      MisBP:0   MisRate:0.00%    MPKI:0.00
PC:2eb30     Total:10      MisBP:0   MisRate:0.00%    MPKI:0.00
PC:18d52     Total:1      MisBP:0   MisRate:0.00%    MPKI:0.00
PC:1e964     Total:1      MisBP:0   MisRate:0.00%    MPKI:0.00
PC:18d50     Total:1      MisBP:0   MisRate:0.00%    MPKI:0.00
PC:2eb2c     Total:9      MisBP:0   MisRate:0.00%    MPKI:0.00
PC:18d4e     Total:1      MisBP:0   MisRate:0.00%    MPKI:0.00
PC:1e960     Total:1      MisBP:0   MisRate:0.00%    MPKI:0.00
PC:2eb2a     Total:9      MisBP:0   MisRate:0.00%    MPKI:0.00
PC:18d4c     Total:1      MisBP:0   MisRate:0.00%    MPKI:0.00
PC:2efe6     Total:1      MisBP:0   MisRate:0.00%    MPKI:0.00
PC:30274     Total:1      MisBP:0   MisRate:0.00%    MPKI:0.00
PC:3025e     Total:1      MisBP:0   MisRate:0.00%    MPKI:0.00
PC:2eff4     Total:1      MisBP:0   MisRate:0.00%    MPKI:0.00
PC:3025c     Total:1      MisBP:0   MisRate:0.00%    MPKI:0.00
PC:3025a     Total:1      MisBP:0   MisRate:0.00%    MPKI:0.00
PC:2eff0     Total:1      MisBP:0   MisRate:0.00%    MPKI:0.00
PC:30258     Total:1      MisBP:0   MisRate:0.00%    MPKI:0.00
PC:2efee     Total:1      MisBP:0   MisRate:0.00%    MPKI:0.00
PC:30254     Total:1      MisBP:0   MisRate:0.00%    MPKI:0.00
PC:2eb62     Total:2      MisBP:0   MisRate:0.00%    MPKI:0.00
PC:3024e     Total:1      MisBP:0   MisRate:0.00%    MPKI:0.00
PC:543d0     Total:3      MisBP:0   MisRate:0.00%    MPKI:0.00
PC:2f690     Total:1      MisBP:0   MisRate:0.00%    MPKI:0.00
PC:2f6a8     Total:1      MisBP:0   MisRate:0.00%    MPKI:0.00
PC:2f6a4     Total:1      MisBP:0   MisRate:0.00%    MPKI:0.00
PC:2edfa     Total:1      MisBP:0   MisRate:0.00%    MPKI:0.00
PC:2edf4     Total:1      MisBP:0   MisRate:0.00%    MPKI:0.00
PC:2f698     Total:1      MisBP:0   MisRate:0.00%    MPKI:0.00
PC:2edec     Total:1      MisBP:0   MisRate:0.00%    MPKI:0.00
PC:2e5e2     Total:1      MisBP:0   MisRate:0.00%    MPKI:0.00
PC:10d0c     Total:1      MisBP:0   MisRate:0.00%    MPKI:0.00
PC:2180c     Total:2      MisBP:0   MisRate:0.00%    MPKI:0.00
PC:2f6d8     Total:2      MisBP:0   MisRate:0.00%    MPKI:0.00
PC:54418     Total:1      MisBP:0   MisRate:0.00%    MPKI:0.00
PC:108fe     Total:1      MisBP:0   MisRate:0.00%    MPKI:0.00
PC:30c96     Total:1      MisBP:0   MisRate:0.00%    MPKI:0.00
PC:2ead2     Total:2      MisBP:0   MisRate:0.00%    MPKI:0.00
PC:2f738     Total:3      MisBP:0   MisRate:0.00%    MPKI:0.00
PC:2e5e4     Total:1      MisBP:0   MisRate:0.00%    MPKI:0.00
PC:2f736     Total:3      MisBP:0   MisRate:0.00%    MPKI:0.00
PC:2eaa6     Total:1      MisBP:0   MisRate:0.00%    MPKI:0.00
PC:2f748     Total:1      MisBP:0   MisRate:0.00%    MPKI:0.00
PC:194ca     Total:1      MisBP:0   MisRate:0.00%    MPKI:0.00
PC:2eacc     Total:2      MisBP:0   MisRate:0.00%    MPKI:0.00
PC:10cf0     Total:14421115      MisBP:0   MisRate:0.00%    MPKI:0.00
PC:2ebb4     Total:1      MisBP:0   MisRate:0.00%    MPKI:0.00
PC:18dd6     Total:4      MisBP:0   MisRate:0.00%    MPKI:0.00
PC:2eaa2     Total:3      MisBP:0   MisRate:0.00%    MPKI:0.00
PC:10d08     Total:1      MisBP:0   MisRate:0.00%    MPKI:0.00
PC:18dee     Total:2      MisBP:0   MisRate:0.00%    MPKI:0.00
PC:30ca6     Total:1      MisBP:0   MisRate:0.00%    MPKI:0.00
PC:30c9a     Total:1      MisBP:0   MisRate:0.00%    MPKI:0.00
PC:1958c     Total:1      MisBP:0   MisRate:0.00%    MPKI:0.00
PC:21782     Total:2      MisBP:0   MisRate:0.00%    MPKI:0.00
PC:21810     Total:2      MisBP:0   MisRate:0.00%    MPKI:0.00
PC:2eae2     Total:2      MisBP:0   MisRate:0.00%    MPKI:0.00
PC:19598     Total:1      MisBP:0   MisRate:0.00%    MPKI:0.00
PC:2178e     Total:1      MisBP:0   MisRate:0.00%    MPKI:0.00
PC:54428     Total:1      MisBP:0   MisRate:0.00%    MPKI:0.00
PC:1090e     Total:2      MisBP:0   MisRate:0.00%    MPKI:0.00
PC:189f4     Total:1      MisBP:0   MisRate:0.00%    MPKI:0.00
PC:2f75a     Total:1      MisBP:0   MisRate:0.00%    MPKI:0.00
PC:2f73e     Total:3      MisBP:0   MisRate:0.00%    MPKI:0.00
PC:168b2     Total:2      MisBP:0   MisRate:0.00%    MPKI:0.00
PC:18d86     Total:3      MisBP:0   MisRate:0.00%    MPKI:0.00
PC:10cf8     Total:14421115      MisBP:0   MisRate:0.00%    MPKI:0.00
PC:18dde     Total:4      MisBP:0   MisRate:0.00%    MPKI:0.00
PC:2f73c     Total:3      MisBP:0   MisRate:0.00%    MPKI:0.00
PC:2e5e8     Total:2      MisBP:0   MisRate:0.00%    MPKI:0.00
PC:162bc     Total:1      MisBP:0   MisRate:0.00%    MPKI:0.00
PC:30a42     Total:2      MisBP:0   MisRate:0.00%    MPKI:0.00
PC:168fc     Total:1      MisBP:0   MisRate:0.00%    MPKI:0.00
PC:2e5dc     Total:1      MisBP:0   MisRate:0.00%    MPKI:0.00
PC:2ea9a     Total:10      MisBP:0   MisRate:0.00%    MPKI:0.00
PC:10d00     Total:1      MisBP:0   MisRate:0.00%    MPKI:0.00
PC:2eac6     Total:1      MisBP:0   MisRate:0.00%    MPKI:0.00
PC:5440c     Total:1      MisBP:0   MisRate:0.00%    MPKI:0.00
PC:108f2     Total:1      MisBP:0   MisRate:0.00%    MPKI:0.00
PC:30c8a     Total:1      MisBP:0   MisRate:0.00%    MPKI:0.00
PC:10d2c     Total:1      MisBP:0   MisRate:0.00%    MPKI:0.00
PC:18e12     Total:1      MisBP:0   MisRate:0.00%    MPKI:0.00
PC:10cea     Total:14421116      MisBP:0   MisRate:0.00%    MPKI:0.00
PC:10abe     Total:2      MisBP:0   MisRate:0.00%    MPKI:0.00
PC:2ebae     Total:1      MisBP:0   MisRate:0.00%    MPKI:0.00
PC:18dd0     Total:1      MisBP:0   MisRate:0.00%    MPKI:0.00
PC:21800     Total:2      MisBP:0   MisRate:0.00%    MPKI:0.00
PC:10cf6     Total:14421115      MisBP:0   MisRate:0.00%    MPKI:0.00
PC:2ebba     Total:1      MisBP:0   MisRate:0.00%    MPKI:0.00
PC:18ddc     Total:4      MisBP:0   MisRate:0.00%    MPKI:0.00
PC:2f706     Total:2      MisBP:0   MisRate:0.00%    MPKI:0.00
PC:2e5b2     Total:1      MisBP:0   MisRate:0.00%    MPKI:0.00
PC:2f81c     Total:1      MisBP:0   MisRate:0.00%    MPKI:0.00
PC:2f70a     Total:2      MisBP:0   MisRate:0.00%    MPKI:0.00
PC:168ce     Total:1      MisBP:0   MisRate:0.00%    MPKI:0.00
PC:2eb80     Total:1      MisBP:0   MisRate:0.00%    MPKI:0.00
PC:11ad4     Total:1      MisBP:0   MisRate:0.00%    MPKI:0.00
PC:194c2     Total:1      MisBP:0   MisRate:0.00%    MPKI:0.00
PC:2effa     Total:1      MisBP:0   MisRate:0.00%    MPKI:0.00
PC:2ea9e     Total:1      MisBP:0   MisRate:0.00%    MPKI:0.00
PC:10d04     Total:1      MisBP:0   MisRate:0.00%    MPKI:0.00
PC:18dea     Total:3      MisBP:0   MisRate:0.00%    MPKI:0.00
PC:2eb04     Total:2      MisBP:0   MisRate:0.00%    MPKI:0.00
PC:10902     Total:3      MisBP:0   MisRate:0.00%    MPKI:0.00
PC:2e5b6     Total:1      MisBP:0   MisRate:0.00%    MPKI:0.00
PC:2f820     Total:1      MisBP:0   MisRate:0.00%    MPKI:0.00
PC:25266     Total:2      MisBP:0   MisRate:0.00%    MPKI:0.00
PC:10930     Total:2      MisBP:0   MisRate:0.00%    MPKI:0.00
PC:10d28     Total:4      MisBP:0   MisRate:0.00%    MPKI:0.00
PC:10cec     Total:14421116      MisBP:0   MisRate:0.00%    MPKI:0.00
PC:168fe     Total:1      MisBP:0   MisRate:0.00%    MPKI:0.00
PC:2ebb0     Total:1      MisBP:0   MisRate:0.00%    MPKI:0.00
PC:18dd2     Total:1      MisBP:0   MisRate:0.00%    MPKI:0.00
PC:2f6d4     Total:2      MisBP:0   MisRate:0.00%    MPKI:0.00
PC:21798     Total:2      MisBP:0   MisRate:0.00%    MPKI:0.00
PC:2ead0     Total:2      MisBP:0   MisRate:0.00%    MPKI:0.00
PC:10cf2     Total:14421115      MisBP:0   MisRate:0.00%    MPKI:0.00
PC:2ebb6     Total:1      MisBP:0   MisRate:0.00%    MPKI:0.00
PC:18dd8     Total:4      MisBP:0   MisRate:0.00%    MPKI:0.00
PC:2eada     Total:2      MisBP:0   MisRate:0.00%    MPKI:0.00
PC:2f6e0     Total:2      MisBP:0   MisRate:0.00%    MPKI:0.00
PC:10906     Total:3      MisBP:0   MisRate:0.00%    MPKI:0.00
PC:30c9e     Total:1      MisBP:0   MisRate:0.00%    MPKI:0.00
PC:19590     Total:1      MisBP:0   MisRate:0.00%    MPKI:0.00
PC:2eaec     Total:2      MisBP:0   MisRate:0.00%    MPKI:0.00
PC:54414     Total:1      MisBP:0   MisRate:0.00%    MPKI:0.00
PC:108fa     Total:1      MisBP:0   MisRate:0.00%    MPKI:0.00
PC:189e0     Total:7      MisBP:0   MisRate:0.00%    MPKI:0.00
PC:2ebbe     Total:1      MisBP:0   MisRate:0.00%    MPKI:0.00
PC:18de0     Total:4      MisBP:0   MisRate:0.00%    MPKI:0.00
PC:2eaca     Total:2      MisBP:0   MisRate:0.00%    MPKI:0.00
PC:108f6     Total:1      MisBP:0   MisRate:0.00%    MPKI:0.00
PC:189dc     Total:7      MisBP:0   MisRate:0.00%    MPKI:0.00
PC:10cee     Total:14421116      MisBP:0   MisRate:0.00%    MPKI:0.00
PC:168a8     Total:2      MisBP:0   MisRate:0.00%    MPKI:0.00
PC:168b0     Total:2      MisBP:0   MisRate:0.00%    MPKI:0.00
PC:18d84     Total:3      MisBP:0   MisRate:0.00%    MPKI:0.00
PC:2180e     Total:2      MisBP:0   MisRate:0.00%    MPKI:0.00
PC:2eb5e     Total:2      MisBP:0   MisRate:0.00%    MPKI:0.00
PC:168ac     Total:2      MisBP:0   MisRate:0.00%    MPKI:0.00
PC:18d80     Total:3      MisBP:0   MisRate:0.00%    MPKI:0.00
PC:2eb5c     Total:2      MisBP:0   MisRate:0.00%    MPKI:0.00
PC:168aa     Total:2      MisBP:0   MisRate:0.00%    MPKI:0.00
PC:18d7e     Total:3      MisBP:0   MisRate:0.00%    MPKI:0.00
PC:2eb5a     Total:2      MisBP:0   MisRate:0.00%    MPKI:0.00
PC:2ebb2     Total:1      MisBP:0   MisRate:0.00%    MPKI:0.00
PC:18d7c     Total:3      MisBP:0   MisRate:0.00%    MPKI:0.00
PC:2eb52     Total:2      MisBP:0   MisRate:0.00%    MPKI:0.00
PC:168a0     Total:16      MisBP:0   MisRate:0.00%    MPKI:0.00
PC:2eb50     Total:1      MisBP:0   MisRate:0.00%    MPKI:0.00
PC:2eb4c     Total:1      MisBP:0   MisRate:0.00%    MPKI:0.00
PC:1e97e     Total:1      MisBP:0   MisRate:0.00%    MPKI:0.00
PC:2eb48     Total:1      MisBP:0   MisRate:0.00%    MPKI:0.00
PC:18d6a     Total:30      MisBP:0   MisRate:0.00%    MPKI:0.00
PC:1e97c     Total:1      MisBP:0   MisRate:0.00%    MPKI:0.00
PC:18df8     Total:63      MisBP:0   MisRate:0.00%    MPKI:0.00
PC:168ec     Total:1      MisBP:0   MisRate:0.00%    MPKI:0.00
PC:18dc0     Total:1      MisBP:0   MisRate:0.00%    MPKI:0.00
PC:168ea     Total:1      MisBP:0   MisRate:0.00%    MPKI:0.00
PC:2eb9c     Total:1      MisBP:0   MisRate:0.00%    MPKI:0.00
PC:18dbe     Total:2      MisBP:0   MisRate:0.00%    MPKI:0.00
PC:2f742     Total:1      MisBP:0   MisRate:0.00%    MPKI:0.00
PC:168b6     Total:2      MisBP:0   MisRate:0.00%    MPKI:0.00
PC:18d8a     Total:3      MisBP:0   MisRate:0.00%    MPKI:0.00
PC:2eaac     Total:1      MisBP:0   MisRate:0.00%    MPKI:0.00
PC:10d12     Total:1      MisBP:0   MisRate:0.00%    MPKI:0.00
PC:10cda     Total:14421115      MisBP:0   MisRate:0.00%    MPKI:0.00
PC:10cfc     Total:1      MisBP:0   MisRate:0.00%    MPKI:0.00
PC:18de2     Total:4      MisBP:0   MisRate:0.00%    MPKI:0.00
PC:2f740     Total:1      MisBP:0   MisRate:0.00%    MPKI:0.00
PC:2e5ec     Total:1      MisBP:0   MisRate:0.00%    MPKI:0.00
PC:2eaaa     Total:1      MisBP:0   MisRate:0.00%    MPKI:0.00
PC:21804     Total:2      MisBP:0   MisRate:0.00%    MPKI:0.00
PC:2ead6     Total:2      MisBP:0   MisRate:0.00%    MPKI:0.00
PC:2f6dc     Total:2      MisBP:0   MisRate:0.00%    MPKI:0.00
PC:5441c     Total:1      MisBP:0   MisRate:0.00%    MPKI:0.00
PC:10ce0     Total:14421115      MisBP:0   MisRate:0.00%    MPKI:0.00
PC:18dd4     Total:4      MisBP:0   MisRate:0.00%    MPKI:0.00
PC:2e5f0     Total:1      MisBP:0   MisRate:0.00%    MPKI:0.00
PC:2eaae     Total:1      MisBP:0   MisRate:0.00%    MPKI:0.00
PC:2e5e6     Total:1      MisBP:0   MisRate:0.00%    MPKI:0.00
PC:168ae     Total:2      MisBP:0   MisRate:0.00%    MPKI:0.00
PC:18d82     Total:3      MisBP:0   MisRate:0.00%    MPKI:0.00
PC:194ce     Total:1      MisBP:0   MisRate:0.00%    MPKI:0.00
PC:2eb0a     Total:2      MisBP:0   MisRate:0.00%    MPKI:0.00
PC:2eac8     Total:2      MisBP:0   MisRate:0.00%    MPKI:0.00
PC:30058     Total:1      MisBP:0   MisRate:0.00%    MPKI:0.00
PC:168f2     Total:1      MisBP:0   MisRate:0.00%    MPKI:0.00
PC:2eba4     Total:1      MisBP:0   MisRate:0.00%    MPKI:0.00
PC:18dc6     Total:1      MisBP:0   MisRate:0.00%    MPKI:0.00
PC:10cdc     Total:14421115      MisBP:0   MisRate:0.00%    MPKI:0.00
PC:168ee     Total:1      MisBP:0   MisRate:0.00%    MPKI:0.00
PC:2eba0     Total:1      MisBP:0   MisRate:0.00%    MPKI:0.00
PC:2eab6     Total:1      MisBP:0   MisRate:0.00%    MPKI:0.00
PC:10d1c     Total:3      MisBP:0   MisRate:0.00%    MPKI:0.00
PC:18e02     Total:1      MisBP:0   MisRate:0.00%    MPKI:0.00
PC:10174     Total:3      MisBP:0   MisRate:0.00%    MPKI:0.00
PC:2f80a     Total:3      MisBP:0   MisRate:0.00%    MPKI:0.00
PC:25250     Total:2      MisBP:0   MisRate:0.00%    MPKI:0.00
PC:194cc     Total:1      MisBP:0   MisRate:0.00%    MPKI:0.00
PC:1017c     Total:3      MisBP:0   MisRate:0.00%    MPKI:0.00
PC:2f806     Total:3      MisBP:0   MisRate:0.00%    MPKI:0.00
PC:194c8     Total:1      MisBP:0   MisRate:0.00%    MPKI:0.00
PC:10178     Total:3      MisBP:0   MisRate:0.00%    MPKI:0.00
PC:2f802     Total:1      MisBP:0   MisRate:0.00%    MPKI:0.00
PC:30a6c     Total:2      MisBP:0   MisRate:0.00%    MPKI:0.00
PC:194c4     Total:1      MisBP:0   MisRate:0.00%    MPKI:0.00
PC:10180     Total:3      MisBP:0   MisRate:0.00%    MPKI:0.00
PC:2f7fe     Total:2      MisBP:0   MisRate:0.00%    MPKI:0.00
PC:2f7e2     Total:1      MisBP:0   MisRate:0.00%    MPKI:0.00
PC:30a4c     Total:2      MisBP:0   MisRate:0.00%    MPKI:0.00
PC:2f7de     Total:1      MisBP:0   MisRate:0.00%    MPKI:0.00
PC:2f7da     Total:1      MisBP:0   MisRate:0.00%    MPKI:0.00
PC:30a44     Total:2      MisBP:0   MisRate:0.00%    MPKI:0.00
PC:162be     Total:1      MisBP:0   MisRate:0.00%    MPKI:0.00
PC:2f7d6     Total:1      MisBP:0   MisRate:0.00%    MPKI:0.00
PC:30a40     Total:1      MisBP:0   MisRate:0.00%    MPKI:0.00
PC:30a80     Total:2      MisBP:0   MisRate:0.00%    MPKI:0.00
PC:2f81e     Total:1      MisBP:0   MisRate:0.00%    MPKI:0.00
PC:30a88     Total:2      MisBP:0   MisRate:0.00%    MPKI:0.00
PC:194e0     Total:1      MisBP:0   MisRate:0.00%    MPKI:0.00
PC:10190     Total:3      MisBP:0   MisRate:0.00%    MPKI:0.00
PC:2f81a     Total:1      MisBP:0   MisRate:0.00%    MPKI:0.00
PC:2e5b0     Total:7      MisBP:0   MisRate:0.00%    MPKI:0.00
PC:25260     Total:2      MisBP:0   MisRate:0.00%    MPKI:0.00
PC:194dc     Total:1      MisBP:0   MisRate:0.00%    MPKI:0.00
PC:1018c     Total:3      MisBP:0   MisRate:0.00%    MPKI:0.00
PC:2f816     Total:1      MisBP:0   MisRate:0.00%    MPKI:0.00
PC:162ba     Total:2      MisBP:0   MisRate:0.00%    MPKI:0.00
PC:2525c     Total:2      MisBP:0   MisRate:0.00%    MPKI:0.00
PC:194d8     Total:1      MisBP:0   MisRate:0.00%    MPKI:0.00
PC:10188     Total:3      MisBP:0   MisRate:0.00%    MPKI:0.00
PC:2f812     Total:3      MisBP:0   MisRate:0.00%    MPKI:0.00
PC:194d4     Total:1      MisBP:0   MisRate:0.00%    MPKI:0.00
PC:10184     Total:12      MisBP:0   MisRate:0.00%    MPKI:0.00
PC:30a78     Total:2      MisBP:0   MisRate:0.00%    MPKI:0.00
PC:25254     Total:2      MisBP:0   MisRate:0.00%    MPKI:0.00
PC:194d0     Total:1      MisBP:0   MisRate:0.00%    MPKI:0.00
PC:3e56e     Total:6      MisBP:0   MisRate:0.00%    MPKI:0.00
PC:2f7a4     Total:1      MisBP:0   MisRate:0.00%    MPKI:0.00
PC:2f7a0     Total:1      MisBP:0   MisRate:0.00%    MPKI:0.00
PC:3e57e     Total:1      MisBP:0   MisRate:0.00%    MPKI:0.00
PC:3e57c     Total:1      MisBP:0   MisRate:0.00%    MPKI:0.00
PC:3e57a     Total:1      MisBP:0   MisRate:0.00%    MPKI:0.00
PC:3e578     Total:1      MisBP:0   MisRate:0.00%    MPKI:0.00
PC:3e576     Total:1      MisBP:0   MisRate:0.00%    MPKI:0.00
PC:3e574     Total:1      MisBP:0   MisRate:0.00%    MPKI:0.00
PC:3e572     Total:1      MisBP:0   MisRate:0.00%    MPKI:0.00
PC:3e570     Total:1      MisBP:0   MisRate:0.00%    MPKI:0.00
PC:2f7ac     Total:1      MisBP:0   MisRate:0.00%    MPKI:0.00
PC:3e56c     Total:1      MisBP:0   MisRate:0.00%    MPKI:0.00
PC:2f770     Total:2      MisBP:0   MisRate:0.00%    MPKI:0.00
PC:2f768     Total:2      MisBP:0   MisRate:0.00%    MPKI:0.00
PC:2f74e     Total:1      MisBP:0   MisRate:0.00%    MPKI:0.00
PC:318be     Total:1      MisBP:0   MisRate:0.00%    MPKI:0.00
PC:318bc     Total:1      MisBP:0   MisRate:0.00%    MPKI:0.00
PC:318ba     Total:1      MisBP:0   MisRate:0.00%    MPKI:0.00
PC:318b6     Total:1      MisBP:0   MisRate:0.00%    MPKI:0.00
PC:318b4     Total:1      MisBP:0   MisRate:0.00%    MPKI:0.00
PC:101dc     Total:2      MisBP:0   MisRate:0.00%    MPKI:0.00
PC:2f7ce     Total:1      MisBP:0   MisRate:0.00%    MPKI:0.00
PC:2f7c4     Total:1      MisBP:0   MisRate:0.00%    MPKI:0.00
PC:2f7c0     Total:1      MisBP:0   MisRate:0.00%    MPKI:0.00
PC:101f8     Total:2      MisBP:0   MisRate:0.00%    MPKI:0.00
PC:101f4     Total:4      MisBP:0   MisRate:0.00%    MPKI:0.00
PC:101f0     Total:2      MisBP:0   MisRate:0.00%    MPKI:0.00
PC:101ec     Total:2      MisBP:0   MisRate:0.00%    MPKI:0.00
PC:101e8     Total:2      MisBP:0   MisRate:0.00%    MPKI:0.00
PC:101e4     Total:2      MisBP:0   MisRate:0.00%    MPKI:0.00
PC:101e0     Total:2      MisBP:0   MisRate:0.00%    MPKI:0.00
PC:3052c     Total:1      MisBP:0   MisRate:0.00%    MPKI:0.00
PC:101d8     Total:2      MisBP:0   MisRate:0.00%    MPKI:0.00
PC:101d4     Total:2      MisBP:0   MisRate:0.00%    MPKI:0.00
PC:101d0     Total:2      MisBP:0   MisRate:0.00%    MPKI:0.00
PC:101cc     Total:10      MisBP:0   MisRate:0.00%    MPKI:0.00
PC:101c8     Total:2      MisBP:0   MisRate:0.00%    MPKI:0.00
PC:101c4     Total:8      MisBP:0   MisRate:0.00%    MPKI:0.00
PC:101c0     Total:2      MisBP:0   MisRate:0.00%    MPKI:0.00
PC:2f7ba     Total:2      MisBP:0   MisRate:0.00%    MPKI:0.00
PC:2f7b4     Total:1      MisBP:0   MisRate:0.00%    MPKI:0.00
PC:18d46     Total:3      MisBP:0   MisRate:0.00%    MPKI:0.00
PC:543d2     Total:3      MisBP:0   MisRate:0.00%    MPKI:0.00
PC:2f692     Total:1      MisBP:0   MisRate:0.00%    MPKI:0.00
PC:194e8     Total:1      MisBP:0   MisRate:0.00%    MPKI:0.00
PC:10198     Total:3      MisBP:0   MisRate:0.00%    MPKI:0.00
PC:194c0     Total:1      MisBP:0   MisRate:0.00%    MPKI:0.00
PC:10170     Total:3      MisBP:0   MisRate:0.00%    MPKI:0.00
PC:194bc     Total:7      MisBP:0   MisRate:0.00%    MPKI:0.00
PC:1016c     Total:3      MisBP:0   MisRate:0.00%    MPKI:0.00
PC:1e958     Total:2      MisBP:0   MisRate:0.00%    MPKI:0.00
PC:2eb24     Total:8      MisBP:0   MisRate:0.00%    MPKI:0.00
PC:2f696     Total:1      MisBP:0   MisRate:0.00%    MPKI:0.00
PC:1e956     Total:2      MisBP:0   MisRate:0.00%    MPKI:0.00
PC:2eb22     Total:8      MisBP:0   MisRate:0.00%    MPKI:0.00
PC:1e954     Total:2      MisBP:0   MisRate:0.00%    MPKI:0.00
PC:2eb20     Total:8      MisBP:0   MisRate:0.00%    MPKI:0.00
PC:18d42     Total:3      MisBP:0   MisRate:0.00%    MPKI:0.00
PC:1e94c     Total:4      MisBP:0   MisRate:0.00%    MPKI:0.00
PC:2eb18     Total:7      MisBP:0   MisRate:0.00%    MPKI:0.00
PC:18d3a     Total:3      MisBP:0   MisRate:0.00%    MPKI:0.00
PC:1e948     Total:2      MisBP:0   MisRate:0.00%    MPKI:0.00
PC:18fcc     Total:1      MisBP:0   MisRate:0.00%    MPKI:0.00
PC:18056     Total:1      MisBP:0   MisRate:0.00%    MPKI:0.00
PC:18046     Total:1      MisBP:0   MisRate:0.00%    MPKI:0.00
PC:18042     Total:1      MisBP:0   MisRate:0.00%    MPKI:0.00
PC:18fde     Total:18      MisBP:0   MisRate:0.00%    MPKI:0.00
PC:18fda     Total:6      MisBP:0   MisRate:0.00%    MPKI:0.00
PC:18fd8     Total:6      MisBP:0   MisRate:0.00%    MPKI:0.00
PC:18fd6     Total:6      MisBP:0   MisRate:0.00%    MPKI:0.00
PC:18fd2     Total:1      MisBP:0   MisRate:0.00%    MPKI:0.00
PC:18fd0     Total:1      MisBP:0   MisRate:0.00%    MPKI:0.00
PC:18fce     Total:3      MisBP:0   MisRate:0.00%    MPKI:0.00
PC:2eb14     Total:7      MisBP:0   MisRate:0.00%    MPKI:0.00
PC:18fca     Total:1      MisBP:0   MisRate:0.00%    MPKI:0.00
PC:19588     Total:1      MisBP:0   MisRate:0.00%    MPKI:0.00
PC:19586     Total:1      MisBP:0   MisRate:0.00%    MPKI:0.00
PC:19582     Total:4      MisBP:0   MisRate:0.00%    MPKI:0.00
PC:19580     Total:1      MisBP:0   MisRate:0.00%    MPKI:0.00
PC:1957e     Total:1      MisBP:0   MisRate:0.00%    MPKI:0.00
PC:543ee     Total:3      MisBP:0   MisRate:0.00%    MPKI:0.00
PC:543ea     Total:3      MisBP:0   MisRate:0.00%    MPKI:0.00
PC:543d6     Total:3      MisBP:0   MisRate:0.00%    MPKI:0.00
PC:3053c     Total:1      MisBP:0   MisRate:0.00%    MPKI:0.00
PC:317ae     Total:1      MisBP:0   MisRate:0.00%    MPKI:0.00
PC:101ac     Total:3      MisBP:0   MisRate:0.00%    MPKI:0.00
PC:2f836     Total:1      MisBP:0   MisRate:0.00%    MPKI:0.00
PC:2e5cc     Total:1      MisBP:0   MisRate:0.00%    MPKI:0.00
PC:194f8     Total:1      MisBP:0   MisRate:0.00%    MPKI:0.00
PC:101a8     Total:3      MisBP:0   MisRate:0.00%    MPKI:0.00
PC:2f832     Total:1      MisBP:0   MisRate:0.00%    MPKI:0.00
PC:2e5c8     Total:1      MisBP:0   MisRate:0.00%    MPKI:0.00
PC:194f4     Total:1      MisBP:0   MisRate:0.00%    MPKI:0.00
PC:101a4     Total:6      MisBP:0   MisRate:0.00%    MPKI:0.00
PC:194fc     Total:5      MisBP:0   MisRate:0.00%    MPKI:0.00
PC:2f82e     Total:1      MisBP:0   MisRate:0.00%    MPKI:0.00
PC:2e5c4     Total:1      MisBP:0   MisRate:0.00%    MPKI:0.00
PC:30a98     Total:1      MisBP:0   MisRate:0.00%    MPKI:0.00
PC:194f0     Total:1      MisBP:0   MisRate:0.00%    MPKI:0.00
PC:101a0     Total:3      MisBP:0   MisRate:0.00%    MPKI:0.00
PC:30538     Total:1      MisBP:0   MisRate:0.00%    MPKI:0.00
PC:2f82a     Total:1      MisBP:0   MisRate:0.00%    MPKI:0.00
PC:194e4     Total:1      MisBP:0   MisRate:0.00%    MPKI:0.00
PC:10194     Total:6      MisBP:0   MisRate:0.00%    MPKI:0.00
PC:2f1b8     Total:1      MisBP:0   MisRate:0.00%    MPKI:0.00
PC:18d7a     Total:1      MisBP:0   MisRate:0.00%    MPKI:0.00
PC:18d78     Total:1      MisBP:0   MisRate:0.00%    MPKI:0.00
PC:2eb56     Total:2      MisBP:0   MisRate:0.00%    MPKI:0.00
PC:168a4     Total:2      MisBP:0   MisRate:0.00%    MPKI:0.00
PC:18e32     Total:5      MisBP:0   MisRate:0.00%    MPKI:0.00
PC:2ec10     Total:1      MisBP:0   MisRate:0.00%    MPKI:0.00
PC:18e2e     Total:1      MisBP:0   MisRate:0.00%    MPKI:0.00
PC:2f1be     Total:1      MisBP:0   MisRate:0.00%    MPKI:0.00
PC:2f1bc     Total:1      MisBP:0   MisRate:0.00%    MPKI:0.00
PC:318b2     Total:1      MisBP:0   MisRate:0.00%    MPKI:0.00
PC:2f1b6     Total:1      MisBP:0   MisRate:0.00%    MPKI:0.00
PC:2f1b2     Total:1      MisBP:0   MisRate:0.00%    MPKI:0.00
PC:2f1b0     Total:1      MisBP:0   MisRate:0.00%    MPKI:0.00
PC:2f1ac     Total:1      MisBP:0   MisRate:0.00%    MPKI:0.00
PC:2f1aa     Total:1      MisBP:0   MisRate:0.00%    MPKI:0.00
PC:2f1a6     Total:1      MisBP:0   MisRate:0.00%    MPKI:0.00
PC:2f1a4     Total:1      MisBP:0   MisRate:0.00%    MPKI:0.00
PC:2f1a0     Total:3      MisBP:0   MisRate:0.00%    MPKI:0.00
PC:2f19c     Total:3      MisBP:0   MisRate:0.00%    MPKI:0.00
PC:30a9a     Total:1      MisBP:0   MisRate:0.00%    MPKI:0.00
PC:2f722     Total:3      MisBP:0   MisRate:0.00%    MPKI:0.00
PC:2e5ce     Total:1      MisBP:0   MisRate:0.00%    MPKI:0.00
PC:30aa2     Total:1      MisBP:0   MisRate:0.00%    MPKI:0.00
PC:2f838     Total:1      MisBP:0   MisRate:0.00%    MPKI:0.00
PC:2f720     Total:3      MisBP:0   MisRate:0.00%    MPKI:0.00
PC:2e5ca     Total:1      MisBP:0   MisRate:0.00%    MPKI:0.00
PC:2f834     Total:1      MisBP:0   MisRate:0.00%    MPKI:0.00
PC:30a9e     Total:1      MisBP:0   MisRate:0.00%    MPKI:0.00
PC:2f71c     Total:3      MisBP:0   MisRate:0.00%    MPKI:0.00
PC:2e5c6     Total:1      MisBP:0   MisRate:0.00%    MPKI:0.00
PC:30aa4     Total:1      MisBP:0   MisRate:0.00%    MPKI:0.00
PC:2f718     Total:3      MisBP:0   MisRate:0.00%    MPKI:0.00
PC:2f716     Total:3      MisBP:0   MisRate:0.00%    MPKI:0.00
PC:2e5c2     Total:1      MisBP:0   MisRate:0.00%    MPKI:0.00
PC:30a96     Total:1      MisBP:0   MisRate:0.00%    MPKI:0.00
PC:2f82c     Total:1      MisBP:0   MisRate:0.00%    MPKI:0.00
PC:2e5be     Total:1      MisBP:0   MisRate:0.00%    MPKI:0.00
PC:2f828     Total:1      MisBP:0   MisRate:0.00%    MPKI:0.00
PC:30a92     Total:1      MisBP:0   MisRate:0.00%    MPKI:0.00
PC:2f704     Total:1      MisBP:0   MisRate:0.00%    MPKI:0.00
PC:2e5da     Total:1      MisBP:0   MisRate:0.00%    MPKI:0.00
PC:30688     Total:7      MisBP:0   MisRate:0.00%    MPKI:0.00
PC:2e63e     Total:35      MisBP:0   MisRate:0.00%    MPKI:0.00
PC:2e63c     Total:7      MisBP:0   MisRate:0.00%    MPKI:0.00
PC:2e638     Total:7      MisBP:0   MisRate:0.00%    MPKI:0.00
PC:2e62e     Total:7      MisBP:0   MisRate:0.00%    MPKI:0.00
PC:2f746     Total:1      MisBP:0   MisRate:0.00%    MPKI:0.00
PC:2e5f2     Total:1      MisBP:0   MisRate:0.00%    MPKI:0.00
PC:2f732     Total:3      MisBP:0   MisRate:0.00%    MPKI:0.00
PC:2e5de     Total:1      MisBP:0   MisRate:0.00%    MPKI:0.00
PC:2f72e     Total:3      MisBP:0   MisRate:0.00%    MPKI:0.00
PC:3067a     Total:8      MisBP:0   MisRate:0.00%    MPKI:0.00
PC:2f72a     Total:3      MisBP:0   MisRate:0.00%    MPKI:0.00
PC:2e5d6     Total:1      MisBP:0   MisRate:0.00%    MPKI:0.00
PC:30aaa     Total:1      MisBP:0   MisRate:0.00%    MPKI:0.00
PC:2e5d4     Total:1      MisBP:0   MisRate:0.00%    MPKI:0.00
PC:2f726     Total:3      MisBP:0   MisRate:0.00%    MPKI:0.00
PC:2e5d2     Total:1      MisBP:0   MisRate:0.00%    MPKI:0.00
PC:30aa6     Total:1      MisBP:0   MisRate:0.00%    MPKI:0.00
PC:2f83c     Total:1      MisBP:0   MisRate:0.00%    MPKI:0.00
PC:2f724     Total:3      MisBP:0   MisRate:0.00%    MPKI:0.00
PC:30068     Total:1      MisBP:0   MisRate:0.00%    MPKI:0.00
PC:162b6     Total:1      MisBP:0   MisRate:0.00%    MPKI:0.00
PC:3007c     Total:1      MisBP:0   MisRate:0.00%    MPKI:0.00
PC:3007a     Total:1      MisBP:0   MisRate:0.00%    MPKI:0.00
PC:2f7cc     Total:1      MisBP:0   MisRate:0.00%    MPKI:0.00
PC:30076     Total:1      MisBP:0   MisRate:0.00%    MPKI:0.00
PC:30074     Total:1      MisBP:0   MisRate:0.00%    MPKI:0.00
PC:2f7c8     Total:1      MisBP:0   MisRate:0.00%    MPKI:0.00
PC:30072     Total:1      MisBP:0   MisRate:0.00%    MPKI:0.00
PC:30070     Total:1      MisBP:0   MisRate:0.00%    MPKI:0.00
PC:3006c     Total:1      MisBP:0   MisRate:0.00%    MPKI:0.00
PC:30a3c     Total:1      MisBP:0   MisRate:0.00%    MPKI:0.00
PC:2edfe     Total:1      MisBP:0   MisRate:0.00%    MPKI:0.00
PC:30066     Total:1      MisBP:0   MisRate:0.00%    MPKI:0.00
PC:2edf8     Total:1      MisBP:0   MisRate:0.00%    MPKI:0.00
PC:2f7b6     Total:1      MisBP:0   MisRate:0.00%    MPKI:0.00
PC:30060     Total:1      MisBP:0   MisRate:0.00%    MPKI:0.00
PC:3005c     Total:1      MisBP:0   MisRate:0.00%    MPKI:0.00
PC:2edf2     Total:1      MisBP:0   MisRate:0.00%    MPKI:0.00
PC:2f7b0     Total:1      MisBP:0   MisRate:0.00%    MPKI:0.00
PC:3005a     Total:1      MisBP:0   MisRate:0.00%    MPKI:0.00
PC:5462e     Total:6      MisBP:0   MisRate:0.00%    MPKI:0.00
PC:30676     Total:8      MisBP:0   MisRate:0.00%    MPKI:0.00
PC:3066e     Total:1      MisBP:0   MisRate:0.00%    MPKI:0.00
PC:317ba     Total:1      MisBP:0   MisRate:0.00%    MPKI:0.00
PC:101b8     Total:21      MisBP:0   MisRate:0.00%    MPKI:0.00
PC:30666     Total:1      MisBP:0   MisRate:0.00%    MPKI:0.00
PC:30a66     Total:3      MisBP:0   MisRate:0.00%    MPKI:0.00
PC:2f7fc     Total:2      MisBP:0   MisRate:0.00%    MPKI:0.00
PC:30a62     Total:3      MisBP:0   MisRate:0.00%    MPKI:0.00
PC:2f7f8     Total:2      MisBP:0   MisRate:0.00%    MPKI:0.00
PC:3068e     Total:7      MisBP:0   MisRate:0.00%    MPKI:0.00
PC:30a5a     Total:2      MisBP:0   MisRate:0.00%    MPKI:0.00
PC:162d4     Total:12      MisBP:0   MisRate:0.00%    MPKI:0.00
PC:2f7f0     Total:2      MisBP:0   MisRate:0.00%    MPKI:0.00
PC:30a56     Total:2      MisBP:0   MisRate:0.00%    MPKI:0.00
PC:2f7ec     Total:2      MisBP:0   MisRate:0.00%    MPKI:0.00
PC:30a4e     Total:2      MisBP:0   MisRate:0.00%    MPKI:0.00
PC:162c8     Total:1      MisBP:0   MisRate:0.00%    MPKI:0.00
PC:2f7e4     Total:1      MisBP:0   MisRate:0.00%    MPKI:0.00
PC:2f7d2     Total:1      MisBP:0   MisRate:0.00%    MPKI:0.00
PC:2f6b2     Total:1      MisBP:0   MisRate:0.00%    MPKI:0.00
PC:2f6de     Total:2      MisBP:0   MisRate:0.00%    MPKI:0.00
PC:5441e     Total:1      MisBP:0   MisRate:0.00%    MPKI:0.00
PC:2f6da     Total:2      MisBP:0   MisRate:0.00%    MPKI:0.00
PC:2f6d6     Total:2      MisBP:0   MisRate:0.00%    MPKI:0.00
PC:2f6d2     Total:1      MisBP:0   MisRate:0.00%    MPKI:0.00
PC:54412     Total:1      MisBP:0   MisRate:0.00%    MPKI:0.00
PC:543f6     Total:3      MisBP:0   MisRate:0.00%    MPKI:0.00
PC:2f6ce     Total:1      MisBP:0   MisRate:0.00%    MPKI:0.00
PC:5440e     Total:1      MisBP:0   MisRate:0.00%    MPKI:0.00
PC:543f2     Total:3      MisBP:0   MisRate:0.00%    MPKI:0.00
PC:54422     Total:1      MisBP:0   MisRate:0.00%    MPKI:0.00
PC:2f6ca     Total:1      MisBP:0   MisRate:0.00%    MPKI:0.00
PC:30a6a     Total:2      MisBP:0   MisRate:0.00%    MPKI:0.00
PC:2f800     Total:1      MisBP:0   MisRate:0.00%    MPKI:0.00
PC:543e6     Total:3      MisBP:0   MisRate:0.00%    MPKI:0.00
PC:2f6a6     Total:1      MisBP:0   MisRate:0.00%    MPKI:0.00
PC:2f6be     Total:1      MisBP:0   MisRate:0.00%    MPKI:0.00
PC:2f6bc     Total:1      MisBP:0   MisRate:0.00%    MPKI:0.00
PC:543fc     Total:3      MisBP:0   MisRate:0.00%    MPKI:0.00
PC:543e0     Total:3      MisBP:0   MisRate:0.00%    MPKI:0.00
PC:101b4     Total:3      MisBP:0   MisRate:0.00%    MPKI:0.00
PC:318ac     Total:1      MisBP:0   MisRate:0.00%    MPKI:0.00
PC:318aa     Total:1      MisBP:0   MisRate:0.00%    MPKI:0.00
PC:2f714     Total:3      MisBP:0   MisRate:0.00%    MPKI:0.00
PC:2f710     Total:2      MisBP:0   MisRate:0.00%    MPKI:0.00
PC:2f70c     Total:2      MisBP:0   MisRate:0.00%    MPKI:0.00
PC:31826     Total:1      MisBP:0   MisRate:0.00%    MPKI:0.00
PC:3181e     Total:1      MisBP:0   MisRate:0.00%    MPKI:0.00
PC:317be     Total:1      MisBP:0   MisRate:0.00%    MPKI:0.00
PC:101bc     Total:3      MisBP:0   MisRate:0.00%    MPKI:0.00
PC:317b6     Total:1      MisBP:0   MisRate:0.00%    MPKI:0.00
PC:2f6a0     Total:1      MisBP:0   MisRate:0.00%    MPKI:0.00
PC:317b2     Total:1      MisBP:0   MisRate:0.00%    MPKI:0.00
PC:101b0     Total:3      MisBP:0   MisRate:0.00%    MPKI:0.00
PC:18078     Total:5      MisBP:0   MisRate:0.00%    MPKI:0.00
PC:2f6fe     Total:3      MisBP:0   MisRate:0.00%    MPKI:0.00
PC:2f6f6     Total:3      MisBP:0   MisRate:0.00%    MPKI:0.00
PC:2f6ee     Total:3      MisBP:0   MisRate:0.00%    MPKI:0.00
PC:5442e     Total:1      MisBP:0   MisRate:0.00%    MPKI:0.00
PC:2f6e6     Total:2      MisBP:0   MisRate:0.00%    MPKI:0.00
PC:2f6e2     Total:2      MisBP:0   MisRate:0.00%    MPKI:0.00
PC:217ec     Total:4      MisBP:0   MisRate:0.00%    MPKI:0.00
PC:2f66a     Total:1      MisBP:0   MisRate:0.00%    MPKI:0.00
PC:2f198     Total:3      MisBP:0   MisRate:0.00%    MPKI:0.00
PC:103be     Total:1      MisBP:0   MisRate:0.00%    MPKI:0.00
PC:217f4     Total:3      MisBP:0   MisRate:0.00%    MPKI:0.00
PC:2f194     Total:3      MisBP:0   MisRate:0.00%    MPKI:0.00
PC:103ba     Total:1      MisBP:0   MisRate:0.00%    MPKI:0.00
PC:2f192     Total:3      MisBP:0   MisRate:0.00%    MPKI:0.00
PC:103b8     Total:1      MisBP:0   MisRate:0.00%    MPKI:0.00
PC:217ee     Total:3      MisBP:0   MisRate:0.00%    MPKI:0.00
PC:103b6     Total:1      MisBP:0   MisRate:0.00%    MPKI:0.00
PC:2f66c     Total:1      MisBP:0   MisRate:0.00%    MPKI:0.00
PC:2f18e     Total:3      MisBP:0   MisRate:0.00%    MPKI:0.00
PC:103b4     Total:1      MisBP:0   MisRate:0.00%    MPKI:0.00
PC:217ea     Total:4      MisBP:0   MisRate:0.00%    MPKI:0.00
PC:103aa     Total:1      MisBP:0   MisRate:0.00%    MPKI:0.00
PC:306bc     Total:1      MisBP:0   MisRate:0.00%    MPKI:0.00
PC:3180c     Total:1      MisBP:0   MisRate:0.00%    MPKI:0.00
PC:306b8     Total:1      MisBP:0   MisRate:0.00%    MPKI:0.00
PC:306b4     Total:1      MisBP:0   MisRate:0.00%    MPKI:0.00
PC:30696     Total:7      MisBP:0   MisRate:0.00%    MPKI:0.00
PC:2f68e     Total:1      MisBP:0   MisRate:0.00%    MPKI:0.00
PC:2f6b8     Total:1      MisBP:0   MisRate:0.00%    MPKI:0.00
PC:543f8     Total:3      MisBP:0   MisRate:0.00%    MPKI:0.00
PC:2f69c     Total:1      MisBP:0   MisRate:0.00%    MPKI:0.00
PC:2f6b4     Total:1      MisBP:0   MisRate:0.00%    MPKI:0.00
PC:543da     Total:3      MisBP:0   MisRate:0.00%    MPKI:0.00
PC:2f69a     Total:1      MisBP:0   MisRate:0.00%    MPKI:0.00
PC:2f6b0     Total:1      MisBP:0   MisRate:0.00%    MPKI:0.00
PC:543d4     Total:3      MisBP:0   MisRate:0.00%    MPKI:0.00
PC:2f6ac     Total:1      MisBP:0   MisRate:0.00%    MPKI:0.00
PC:2f730     Total:3      MisBP:0   MisRate:0.00%    MPKI:0.00
PC:2f68a     Total:1      MisBP:0   MisRate:0.00%    MPKI:0.00
PC:2f686     Total:1      MisBP:0   MisRate:0.00%    MPKI:0.00
PC:2f680     Total:1      MisBP:0   MisRate:0.00%    MPKI:0.00
PC:2f67c     Total:1      MisBP:0   MisRate:0.00%    MPKI:0.00
PC:2f67a     Total:1      MisBP:0   MisRate:0.00%    MPKI:0.00
PC:2f678     Total:1      MisBP:0   MisRate:0.00%    MPKI:0.00
PC:2f676     Total:1      MisBP:0   MisRate:0.00%    MPKI:0.00
PC:2f674     Total:1      MisBP:0   MisRate:0.00%    MPKI:0.00
PC:2f670     Total:1      MisBP:0   MisRate:0.00%    MPKI:0.00
PC:3068c     Total:7      MisBP:0   MisRate:0.00%    MPKI:0.00
PC:18076     Total:5      MisBP:0   MisRate:0.00%    MPKI:0.00
PC:2ec5a     Total:2      MisBP:0   MisRate:0.00%    MPKI:0.00
PC:317b0     Total:1      MisBP:0   MisRate:0.00%    MPKI:0.00
PC:2ec5e     Total:2      MisBP:0   MisRate:0.00%    MPKI:0.00
PC:30664     Total:1      MisBP:0   MisRate:0.00%    MPKI:0.00
PC:2ec66     Total:2      MisBP:0   MisRate:0.00%    MPKI:0.00
PC:30668     Total:1      MisBP:0   MisRate:0.00%    MPKI:0.00
PC:2ec6a     Total:2      MisBP:0   MisRate:0.00%    MPKI:0.00
PC:30686     Total:7      MisBP:0   MisRate:0.00%    MPKI:0.00
PC:2ec88     Total:2      MisBP:0   MisRate:0.00%    MPKI:0.00
PC:2ec48     Total:2      MisBP:0   MisRate:0.00%    MPKI:0.00
PC:2ec8e     Total:2      MisBP:0   MisRate:0.00%    MPKI:0.00
PC:2ec92     Total:2      MisBP:0   MisRate:0.00%    MPKI:0.00
PC:30694     Total:7      MisBP:0   MisRate:0.00%    MPKI:0.00
PC:2ec96     Total:2      MisBP:0   MisRate:0.00%    MPKI:0.00
PC:30698     Total:7      MisBP:0   MisRate:0.00%    MPKI:0.00
PC:2ec9a     Total:2      MisBP:0   MisRate:0.00%    MPKI:0.00
PC:3069a     Total:7      MisBP:0   MisRate:0.00%    MPKI:0.00
PC:2ec9c     Total:2      MisBP:0   MisRate:0.00%    MPKI:0.00
PC:2ec9e     Total:2      MisBP:0   MisRate:0.00%    MPKI:0.00
PC:3069e     Total:1      MisBP:0   MisRate:0.00%    MPKI:0.00
PC:30680     Total:7      MisBP:0   MisRate:0.00%    MPKI:0.00
PC:2ec40     Total:2      MisBP:0   MisRate:0.00%    MPKI:0.00
PC:218f0     Total:5      MisBP:0   MisRate:0.00%    MPKI:0.00
PC:30eec     Total:1      MisBP:0   MisRate:0.00%    MPKI:0.00
PC:2ec44     Total:2      MisBP:0   MisRate:0.00%    MPKI:0.00
PC:2ec76     Total:3      MisBP:0   MisRate:0.00%    MPKI:0.00
PC:2ec7a     Total:3      MisBP:0   MisRate:0.00%    MPKI:0.00
PC:3067c     Total:8      MisBP:0   MisRate:0.00%    MPKI:0.00
PC:2ec7e     Total:3      MisBP:0   MisRate:0.00%    MPKI:0.00
PC:3067e     Total:8      MisBP:0   MisRate:0.00%    MPKI:0.00
PC:2ec80     Total:2      MisBP:0   MisRate:0.00%    MPKI:0.00
PC:2eca0     Total:2      MisBP:0   MisRate:0.00%    MPKI:0.00
PC:2ec82     Total:2      MisBP:0   MisRate:0.00%    MPKI:0.00
PC:30682     Total:7      MisBP:0   MisRate:0.00%    MPKI:0.00
PC:2ec84     Total:2      MisBP:0   MisRate:0.00%    MPKI:0.00
PC:2ec8c     Total:2      MisBP:0   MisRate:0.00%    MPKI:0.00
PC:2ec32     Total:3      MisBP:0   MisRate:0.00%    MPKI:0.00
PC:18062     Total:2      MisBP:0   MisRate:0.00%    MPKI:0.00
PC:30eee     Total:1      MisBP:0   MisRate:0.00%    MPKI:0.00
PC:2ec46     Total:2      MisBP:0   MisRate:0.00%    MPKI:0.00
PC:18064     Total:2      MisBP:0   MisRate:0.00%    MPKI:0.00
PC:1807a     Total:5      MisBP:0   MisRate:0.00%    MPKI:0.00
PC:2ed28     Total:1      MisBP:0   MisRate:0.00%    MPKI:0.00
PC:2ed2c     Total:1      MisBP:0   MisRate:0.00%    MPKI:0.00
PC:2ed2e     Total:1      MisBP:0   MisRate:0.00%    MPKI:0.00
PC:2ed32     Total:1      MisBP:0   MisRate:0.00%    MPKI:0.00
PC:2ed36     Total:1      MisBP:0   MisRate:0.00%    MPKI:0.00
PC:2ed3a     Total:1      MisBP:0   MisRate:0.00%    MPKI:0.00
PC:2ed3e     Total:1      MisBP:0   MisRate:0.00%    MPKI:0.00
PC:304fe     Total:1      MisBP:0   MisRate:0.00%    MPKI:0.00
PC:2efdc     Total:1      MisBP:0   MisRate:0.00%    MPKI:0.00
PC:2f688     Total:1      MisBP:0   MisRate:0.00%    MPKI:0.00
PC:2ed24     Total:1      MisBP:0   MisRate:0.00%    MPKI:0.00
PC:1807c     Total:5      MisBP:0   MisRate:0.00%    MPKI:0.00
PC:1807e     Total:5      MisBP:0   MisRate:0.00%    MPKI:0.00
PC:18096     Total:1      MisBP:0   MisRate:0.00%    MPKI:0.00
PC:18098     Total:1      MisBP:0   MisRate:0.00%    MPKI:0.00
PC:1809a     Total:1      MisBP:0   MisRate:0.00%    MPKI:0.00
PC:1809e     Total:1      MisBP:0   MisRate:0.00%    MPKI:0.00
PC:180a2     Total:1      MisBP:0   MisRate:0.00%    MPKI:0.00
PC:180a4     Total:1      MisBP:0   MisRate:0.00%    MPKI:0.00
PC:180a8     Total:1      MisBP:0   MisRate:0.00%    MPKI:0.00
PC:2ed00     Total:1      MisBP:0   MisRate:0.00%    MPKI:0.00
PC:31806     Total:1      MisBP:0   MisRate:0.00%    MPKI:0.00
PC:2ecb4     Total:2      MisBP:0   MisRate:0.00%    MPKI:0.00
PC:31812     Total:1      MisBP:0   MisRate:0.00%    MPKI:0.00
PC:306be     Total:1      MisBP:0   MisRate:0.00%    MPKI:0.00
PC:2ecc0     Total:1      MisBP:0   MisRate:0.00%    MPKI:0.00
PC:2ecdc     Total:1      MisBP:0   MisRate:0.00%    MPKI:0.00
PC:2ecf4     Total:1      MisBP:0   MisRate:0.00%    MPKI:0.00
PC:2ecf8     Total:1      MisBP:0   MisRate:0.00%    MPKI:0.00
PC:2ecfa     Total:1      MisBP:0   MisRate:0.00%    MPKI:0.00
PC:2ecfc     Total:1      MisBP:0   MisRate:0.00%    MPKI:0.00
PC:30ee8     Total:1      MisBP:0   MisRate:0.00%    MPKI:0.00
PC:2ed04     Total:1      MisBP:0   MisRate:0.00%    MPKI:0.00
PC:2ed06     Total:1      MisBP:0   MisRate:0.00%    MPKI:0.00
PC:2ed0a     Total:1      MisBP:0   MisRate:0.00%    MPKI:0.00
PC:2ed0e     Total:1      MisBP:0   MisRate:0.00%    MPKI:0.00
PC:2ed14     Total:1      MisBP:0   MisRate:0.00%    MPKI:0.00
PC:2ed18     Total:1      MisBP:0   MisRate:0.00%    MPKI:0.00
PC:2ed1c     Total:1      MisBP:0   MisRate:0.00%    MPKI:0.00
PC:2ed1e     Total:1      MisBP:0   MisRate:0.00%    MPKI:0.00
PC:2ed20     Total:1      MisBP:0   MisRate:0.00%    MPKI:0.00
PC:18070     Total:5      MisBP:0   MisRate:0.00%    MPKI:0.00
PC:18e20     Total:1      MisBP:0   MisRate:0.00%    MPKI:0.00
PC:2ebfe     Total:1      MisBP:0   MisRate:0.00%    MPKI:0.00
PC:18e22     Total:1      MisBP:0   MisRate:0.00%    MPKI:0.00
PC:2ecf0     Total:1      MisBP:0   MisRate:0.00%    MPKI:0.00
PC:2181c     Total:2      MisBP:0   MisRate:0.00%    MPKI:0.00
PC:2181e     Total:10      MisBP:0   MisRate:0.00%    MPKI:0.00
PC:18068     Total:2      MisBP:0   MisRate:0.00%    MPKI:0.00
PC:2ec4c     Total:2      MisBP:0   MisRate:0.00%    MPKI:0.00
PC:1806c     Total:5      MisBP:0   MisRate:0.00%    MPKI:0.00
PC:2ec50     Total:2      MisBP:0   MisRate:0.00%    MPKI:0.00
PC:218c0     Total:6      MisBP:0   MisRate:0.00%    MPKI:0.00
PC:2ec54     Total:2      MisBP:0   MisRate:0.00%    MPKI:0.00
PC:18072     Total:5      MisBP:0   MisRate:0.00%    MPKI:0.00
PC:317a8     Total:1      MisBP:0   MisRate:0.00%    MPKI:0.00
PC:30efe     Total:1      MisBP:0   MisRate:0.00%    MPKI:0.00
PC:2ec56     Total:2      MisBP:0   MisRate:0.00%    MPKI:0.00
PC:18074     Total:5      MisBP:0   MisRate:0.00%    MPKI:0.00
PC:2ec58     Total:2      MisBP:0   MisRate:0.00%    MPKI:0.00
PC:18d8e     Total:4      MisBP:0   MisRate:0.00%    MPKI:0.00
PC:30660     Total:1      MisBP:0   MisRate:0.00%    MPKI:0.00
PC:2ec62     Total:2      MisBP:0   MisRate:0.00%    MPKI:0.00
PC:2ecda     Total:1      MisBP:0   MisRate:0.00%    MPKI:0.00
PC:2ecca     Total:1      MisBP:0   MisRate:0.00%    MPKI:0.00
PC:31820     Total:1      MisBP:0   MisRate:0.00%    MPKI:0.00
PC:2ecce     Total:1      MisBP:0   MisRate:0.00%    MPKI:0.00
PC:218a4     Total:6      MisBP:0   MisRate:0.00%    MPKI:0.00
PC:31824     Total:1      MisBP:0   MisRate:0.00%    MPKI:0.00
PC:2ecd2     Total:1      MisBP:0   MisRate:0.00%    MPKI:0.00
PC:31828     Total:1      MisBP:0   MisRate:0.00%    MPKI:0.00
PC:3182a     Total:1      MisBP:0   MisRate:0.00%    MPKI:0.00
PC:2ecd8     Total:1      MisBP:0   MisRate:0.00%    MPKI:0.00
PC:3182c     Total:1      MisBP:0   MisRate:0.00%    MPKI:0.00
PC:3066c     Total:1      MisBP:0   MisRate:0.00%    MPKI:0.00
PC:2ece0     Total:1      MisBP:0   MisRate:0.00%    MPKI:0.00
PC:30a86     Total:2      MisBP:0   MisRate:0.00%    MPKI:0.00
PC:2ece4     Total:1      MisBP:0   MisRate:0.00%    MPKI:0.00
PC:218b8     Total:8      MisBP:0   MisRate:0.00%    MPKI:0.00
PC:18e18     Total:1      MisBP:0   MisRate:0.00%    MPKI:0.00
PC:2ece8     Total:1      MisBP:0   MisRate:0.00%    MPKI:0.00
PC:218bc     Total:8      MisBP:0   MisRate:0.00%    MPKI:0.00
PC:18e1e     Total:1      MisBP:0   MisRate:0.00%    MPKI:0.00
PC:2ecec     Total:1      MisBP:0   MisRate:0.00%    MPKI:0.00
PC:218a0     Total:6      MisBP:0   MisRate:0.00%    MPKI:0.00
PC:194c6     Total:1      MisBP:0   MisRate:0.00%    MPKI:0.00
PC:21880     Total:3      MisBP:0   MisRate:0.00%    MPKI:0.00
PC:194da     Total:1      MisBP:0   MisRate:0.00%    MPKI:0.00
PC:30272     Total:1      MisBP:0   MisRate:0.00%    MPKI:0.00
PC:18de4     Total:3      MisBP:0   MisRate:0.00%    MPKI:0.00
PC:21884     Total:3      MisBP:0   MisRate:0.00%    MPKI:0.00
PC:194ea     Total:1      MisBP:0   MisRate:0.00%    MPKI:0.00
PC:30532     Total:1      MisBP:0   MisRate:0.00%    MPKI:0.00
PC:194f2     Total:1      MisBP:0   MisRate:0.00%    MPKI:0.00
PC:2189c     Total:6      MisBP:0   MisRate:0.00%    MPKI:0.00
PC:2eff6     Total:1      MisBP:0   MisRate:0.00%    MPKI:0.00
PC:18e08     Total:1      MisBP:0   MisRate:0.00%    MPKI:0.00
PC:218a8     Total:6      MisBP:0   MisRate:0.00%    MPKI:0.00
PC:18e0c     Total:1      MisBP:0   MisRate:0.00%    MPKI:0.00
PC:218ac     Total:6      MisBP:0   MisRate:0.00%    MPKI:0.00
PC:218b0     Total:6      MisBP:0   MisRate:0.00%    MPKI:0.00
PC:218e8     Total:10      MisBP:0   MisRate:0.00%    MPKI:0.00
PC:30ee4     Total:1      MisBP:0   MisRate:0.00%    MPKI:0.00
PC:2ec3c     Total:3      MisBP:0   MisRate:0.00%    MPKI:0.00
PC:218ec     Total:5      MisBP:0   MisRate:0.00%    MPKI:0.00
PC:2eac2     Total:1      MisBP:0   MisRate:0.00%    MPKI:0.00
PC:2ec6e     Total:2      MisBP:0   MisRate:0.00%    MPKI:0.00
PC:30670     Total:1      MisBP:0   MisRate:0.00%    MPKI:0.00
PC:2ec72     Total:3      MisBP:0   MisRate:0.00%    MPKI:0.00
PC:30672     Total:1      MisBP:0   MisRate:0.00%    MPKI:0.00
PC:2ec74     Total:3      MisBP:0   MisRate:0.00%    MPKI:0.00
PC:2eaba     Total:1      MisBP:0   MisRate:0.00%    MPKI:0.00
PC:21220     Total:9      MisBP:0   MisRate:0.00%    MPKI:0.00
PC:21222     Total:3      MisBP:0   MisRate:0.00%    MPKI:0.00
PC:2eabe     Total:1      MisBP:0   MisRate:0.00%    MPKI:0.00
PC:21224     Total:3      MisBP:0   MisRate:0.00%    MPKI:0.00
PC:180aa     Total:1      MisBP:0   MisRate:0.00%    MPKI:0.00
PC:21228     Total:4      MisBP:0   MisRate:0.00%    MPKI:0.00
PC:2122a     Total:12      MisBP:0   MisRate:0.00%    MPKI:0.00
PC:2f7d4     Total:1      MisBP:0   MisRate:0.00%    MPKI:0.00
PC:3007e     Total:1      MisBP:0   MisRate:0.00%    MPKI:0.00
PC:10150     Total:3      MisBP:0   MisRate:0.00%    MPKI:0.00
PC:10160     Total:3      MisBP:0   MisRate:0.00%    MPKI:0.00
PC:2efe2     Total:1      MisBP:0   MisRate:0.00%    MPKI:0.00
PC:3024c     Total:1      MisBP:0   MisRate:0.00%    MPKI:0.00
PC:194be     Total:1      MisBP:0   MisRate:0.00%    MPKI:0.00
PC:54644     Total:1      MisBP:0   MisRate:0.00%    MPKI:0.00
PC:54404     Total:1      MisBP:0   MisRate:0.00%    MPKI:0.00
PC:54408     Total:1      MisBP:0   MisRate:0.00%    MPKI:0.00
PC:54424     Total:1      MisBP:0   MisRate:0.00%    MPKI:0.00
PC:54432     Total:1      MisBP:0   MisRate:0.00%    MPKI:0.00
PC:5443c     Total:1      MisBP:0   MisRate:0.00%    MPKI:0.00
PC:5460c     Total:1      MisBP:0   MisRate:0.00%    MPKI:0.00
PC:5460e     Total:1      MisBP:0   MisRate:0.00%    MPKI:0.00
PC:54610     Total:1      MisBP:0   MisRate:0.00%    MPKI:0.00
PC:54612     Total:1      MisBP:0   MisRate:0.00%    MPKI:0.00
PC:54640     Total:1      MisBP:0   MisRate:0.00%    MPKI:0.00
PC:54402     Total:1      MisBP:0   MisRate:0.00%    MPKI:0.00
PC:1e976     Total:1      MisBP:0   MisRate:0.00%    MPKI:0.00
PC:30c7e     Total:1      MisBP:0   MisRate:0.00%    MPKI:0.00
PC:30cb4     Total:1      MisBP:0   MisRate:0.00%    MPKI:0.00
PC:30cbc     Total:1      MisBP:0   MisRate:0.00%    MPKI:0.00
PC:2ec08     Total:1      MisBP:0   MisRate:0.00%    MPKI:0.00
PC:12330     Total:3      MisBP:0   MisRate:0.00%    MPKI:0.00
PC:12332     Total:1      MisBP:0   MisRate:0.00%    MPKI:0.00
PC:12334     Total:1      MisBP:0   MisRate:0.00%    MPKI:0.00
PC:12336     Total:3      MisBP:0   MisRate:0.00%    MPKI:0.00
PC:10a50     Total:1      MisBP:0   MisRate:0.00%    MPKI:0.00
PC:180e8     Total:1      MisBP:0   MisRate:0.00%    MPKI:0.00
PC:180cc     Total:1      MisBP:0   MisRate:0.00%    MPKI:0.00
PC:180d0     Total:1      MisBP:0   MisRate:0.00%    MPKI:0.00
PC:180d2     Total:1      MisBP:0   MisRate:0.00%    MPKI:0.00
PC:180d4     Total:1      MisBP:0   MisRate:0.00%    MPKI:0.00
PC:180d6     Total:1      MisBP:0   MisRate:0.00%    MPKI:0.00
PC:180d8     Total:1      MisBP:0   MisRate:0.00%    MPKI:0.00
PC:180dc     Total:1      MisBP:0   MisRate:0.00%    MPKI:0.00
PC:180de     Total:1      MisBP:0   MisRate:0.00%    MPKI:0.00
PC:180e2     Total:1      MisBP:0   MisRate:0.00%    MPKI:0.00
PC:180e4     Total:10      MisBP:0   MisRate:0.00%    MPKI:0.00
PC:10a54     Total:1      MisBP:0   MisRate:0.00%    MPKI:0.00
PC:180ea     Total:1      MisBP:0   MisRate:0.00%    MPKI:0.00
PC:180ec     Total:1      MisBP:0   MisRate:0.00%    MPKI:0.00
PC:180ee     Total:1      MisBP:0   MisRate:0.00%    MPKI:0.00
PC:180f0     Total:1      MisBP:0   MisRate:0.00%    MPKI:0.00
PC:180f2     Total:1      MisBP:0   MisRate:0.00%    MPKI:0.00
PC:180f4     Total:1      MisBP:0   MisRate:0.00%    MPKI:0.00
PC:180f8     Total:1      MisBP:0   MisRate:0.00%    MPKI:0.00
PC:180fa     Total:1      MisBP:0   MisRate:0.00%    MPKI:0.00
PC:54400     Total:1      MisBP:0   MisRate:0.00%    MPKI:0.00
PC:10aa4     Total:3      MisBP:0   MisRate:0.00%    MPKI:0.00
PC:10a8a     Total:3      MisBP:0   MisRate:0.00%    MPKI:0.00
PC:10a8e     Total:3      MisBP:0   MisRate:0.00%    MPKI:0.00
PC:10a90     Total:3      MisBP:0   MisRate:0.00%    MPKI:0.00
PC:10a92     Total:3      MisBP:0   MisRate:0.00%    MPKI:0.00
PC:10a94     Total:3      MisBP:0   MisRate:0.00%    MPKI:0.00
PC:10a96     Total:3      MisBP:0   MisRate:0.00%    MPKI:0.00
PC:10a98     Total:3      MisBP:0   MisRate:0.00%    MPKI:0.00
PC:10a9a     Total:3      MisBP:0   MisRate:0.00%    MPKI:0.00
PC:10a9e     Total:3      MisBP:0   MisRate:0.00%    MPKI:0.00
PC:10aa2     Total:3      MisBP:0   MisRate:0.00%    MPKI:0.00
PC:10a88     Total:3      MisBP:0   MisRate:0.00%    MPKI:0.00
PC:10aa6     Total:2      MisBP:0   MisRate:0.00%    MPKI:0.00
PC:10aaa     Total:2      MisBP:0   MisRate:0.00%    MPKI:0.00
PC:10aac     Total:2      MisBP:0   MisRate:0.00%    MPKI:0.00
PC:10aae     Total:2      MisBP:0   MisRate:0.00%    MPKI:0.00
PC:10ab0     Total:2      MisBP:0   MisRate:0.00%    MPKI:0.00
PC:10ab2     Total:2      MisBP:0   MisRate:0.00%    MPKI:0.00
PC:10ab6     Total:2      MisBP:0   MisRate:0.00%    MPKI:0.00
PC:10ab8     Total:2      MisBP:0   MisRate:0.00%    MPKI:0.00
PC:10aba     Total:2      MisBP:0   MisRate:0.00%    MPKI:0.00
PC:10a6c     Total:3999763      MisBP:0   MisRate:0.00%    MPKI:0.00
PC:10a58     Total:4      MisBP:0   MisRate:0.00%    MPKI:0.00
PC:10a5a     Total:1      MisBP:0   MisRate:0.00%    MPKI:0.00
PC:10a5c     Total:1      MisBP:0   MisRate:0.00%    MPKI:0.00
PC:10a5e     Total:1      MisBP:0   MisRate:0.00%    MPKI:0.00
PC:10a60     Total:1      MisBP:0   MisRate:0.00%    MPKI:0.00
PC:10a62     Total:1      MisBP:0   MisRate:0.00%    MPKI:0.00
PC:10a64     Total:3999763      MisBP:0   MisRate:0.00%    MPKI:0.00
PC:10a66     Total:3999763      MisBP:0   MisRate:0.00%    MPKI:0.00
PC:10a68     Total:3999763      MisBP:0   MisRate:0.00%    MPKI:0.00
PC:10a6a     Total:3999763      MisBP:0   MisRate:0.00%    MPKI:0.00
PC:180ca     Total:1      MisBP:0   MisRate:0.00%    MPKI:0.00
PC:10a6e     Total:3999763      MisBP:0   MisRate:0.00%    MPKI:0.00
PC:10a70     Total:3999763      MisBP:0   MisRate:0.00%    MPKI:0.00
PC:10a74     Total:3999763      MisBP:0   MisRate:0.00%    MPKI:0.00
PC:10a78     Total:10      MisBP:0   MisRate:0.00%    MPKI:0.00
PC:10a7c     Total:10      MisBP:0   MisRate:0.00%    MPKI:0.00
PC:10a80     Total:3      MisBP:0   MisRate:0.00%    MPKI:0.00
PC:10a82     Total:3      MisBP:0   MisRate:0.00%    MPKI:0.00
PC:10a84     Total:3      MisBP:0   MisRate:0.00%    MPKI:0.00
PC:10a86     Total:3      MisBP:0   MisRate:0.00%    MPKI:0.00
PC:30c84     Total:1      MisBP:0   MisRate:0.00%    MPKI:0.00
PC:189c4     Total:1      MisBP:0   MisRate:0.00%    MPKI:0.00
PC:30c76     Total:1      MisBP:0   MisRate:0.00%    MPKI:0.00
PC:189c6     Total:1      MisBP:0   MisRate:0.00%    MPKI:0.00
PC:189c8     Total:1      MisBP:0   MisRate:0.00%    MPKI:0.00
PC:30c7a     Total:1      MisBP:0   MisRate:0.00%    MPKI:0.00
PC:189ca     Total:5      MisBP:0   MisRate:0.00%    MPKI:0.00
PC:189ce     Total:5      MisBP:0   MisRate:0.00%    MPKI:0.00
PC:189d0     Total:5      MisBP:0   MisRate:0.00%    MPKI:0.00
PC:30c82     Total:1      MisBP:0   MisRate:0.00%    MPKI:0.00
PC:189d2     Total:5      MisBP:0   MisRate:0.00%    MPKI:0.00
PC:189c2     Total:1      MisBP:0   MisRate:0.00%    MPKI:0.00
PC:189d4     Total:5      MisBP:0   MisRate:0.00%    MPKI:0.00
PC:30c86     Total:1      MisBP:0   MisRate:0.00%    MPKI:0.00
PC:189d6     Total:5      MisBP:0   MisRate:0.00%    MPKI:0.00
PC:30c88     Total:1      MisBP:0   MisRate:0.00%    MPKI:0.00
PC:189da     Total:7      MisBP:0   MisRate:0.00%    MPKI:0.00
PC:189de     Total:7      MisBP:0   MisRate:0.00%    MPKI:0.00
PC:30c90     Total:1      MisBP:0   MisRate:0.00%    MPKI:0.00
PC:189e2     Total:6      MisBP:0   MisRate:0.00%    MPKI:0.00
PC:30c94     Total:1      MisBP:0   MisRate:0.00%    MPKI:0.00
PC:189e6     Total:1      MisBP:0   MisRate:0.00%    MPKI:0.00
PC:18086     Total:4      MisBP:0   MisRate:0.00%    MPKI:0.00
PC:180ae     Total:1      MisBP:0   MisRate:0.00%    MPKI:0.00
PC:180b0     Total:1      MisBP:0   MisRate:0.00%    MPKI:0.00
PC:180b2     Total:1      MisBP:0   MisRate:0.00%    MPKI:0.00
PC:180b4     Total:1      MisBP:0   MisRate:0.00%    MPKI:0.00
PC:180b6     Total:1      MisBP:0   MisRate:0.00%    MPKI:0.00
PC:180ba     Total:1      MisBP:0   MisRate:0.00%    MPKI:0.00
PC:180bc     Total:1      MisBP:0   MisRate:0.00%    MPKI:0.00
PC:18080     Total:4      MisBP:0   MisRate:0.00%    MPKI:0.00
PC:18082     Total:4      MisBP:0   MisRate:0.00%    MPKI:0.00
PC:18084     Total:4      MisBP:0   MisRate:0.00%    MPKI:0.00
PC:189ea     Total:1      MisBP:0   MisRate:0.00%    MPKI:0.00
PC:18088     Total:4      MisBP:0   MisRate:0.00%    MPKI:0.00
PC:1808c     Total:5      MisBP:0   MisRate:0.00%    MPKI:0.00
PC:1808e     Total:6      MisBP:0   MisRate:0.00%    MPKI:0.00
PC:18090     Total:6      MisBP:0   MisRate:0.00%    MPKI:0.00
PC:18092     Total:6      MisBP:0   MisRate:0.00%    MPKI:0.00
PC:18094     Total:30      MisBP:0   MisRate:0.00%    MPKI:0.00
PC:189bc     Total:7      MisBP:0   MisRate:0.00%    MPKI:0.00
PC:189be     Total:1      MisBP:0   MisRate:0.00%    MPKI:0.00
PC:189c0     Total:1      MisBP:0   MisRate:0.00%    MPKI:0.00
PC:18a34     Total:7      MisBP:0   MisRate:0.00%    MPKI:0.00
PC:22eb6     Total:1      MisBP:0   MisRate:0.00%    MPKI:0.00
PC:22eba     Total:1      MisBP:0   MisRate:0.00%    MPKI:0.00
PC:22ebc     Total:1      MisBP:0   MisRate:0.00%    MPKI:0.00
PC:18a26     Total:1      MisBP:0   MisRate:0.00%    MPKI:0.00
PC:18a28     Total:1      MisBP:0   MisRate:0.00%    MPKI:0.00
PC:18a2a     Total:1      MisBP:0   MisRate:0.00%    MPKI:0.00
PC:18a2c     Total:1      MisBP:0   MisRate:0.00%    MPKI:0.00
PC:18a2e     Total:1      MisBP:0   MisRate:0.00%    MPKI:0.00
PC:18a30     Total:1      MisBP:0   MisRate:0.00%    MPKI:0.00
PC:18a32     Total:1      MisBP:0   MisRate:0.00%    MPKI:0.00
PC:22eb4     Total:6      MisBP:0   MisRate:0.00%    MPKI:0.00
PC:18a38     Total:1      MisBP:0   MisRate:0.00%    MPKI:0.00
PC:18a3a     Total:1      MisBP:0   MisRate:0.00%    MPKI:0.00
PC:18a14     Total:1      MisBP:0   MisRate:0.00%    MPKI:0.00
PC:18a1c     Total:1      MisBP:0   MisRate:0.00%    MPKI:0.00
PC:10936     Total:1      MisBP:0   MisRate:0.00%    MPKI:0.00
PC:18a20     Total:1      MisBP:0   MisRate:0.00%    MPKI:0.00
PC:18a24     Total:10      MisBP:0   MisRate:0.00%    MPKI:0.00
PC:180c4     Total:1      MisBP:0   MisRate:0.00%    MPKI:0.00
PC:180c6     Total:1      MisBP:0   MisRate:0.00%    MPKI:0.00
PC:22e96     Total:3      MisBP:0   MisRate:0.00%    MPKI:0.00
PC:189ee     Total:1      MisBP:0   MisRate:0.00%    MPKI:0.00
PC:30ca0     Total:1      MisBP:0   MisRate:0.00%    MPKI:0.00
PC:189f2     Total:1      MisBP:0   MisRate:0.00%    MPKI:0.00
PC:30ca4     Total:1      MisBP:0   MisRate:0.00%    MPKI:0.00
PC:189f6     Total:1      MisBP:0   MisRate:0.00%    MPKI:0.00
PC:189fa     Total:1      MisBP:0   MisRate:0.00%    MPKI:0.00
PC:189fe     Total:1      MisBP:0   MisRate:0.00%    MPKI:0.00
PC:30cb0     Total:1      MisBP:0   MisRate:0.00%    MPKI:0.00
PC:22e90     Total:3      MisBP:0   MisRate:0.00%    MPKI:0.00
PC:22e94     Total:3      MisBP:0   MisRate:0.00%    MPKI:0.00
PC:18e16     Total:1      MisBP:0   MisRate:0.00%    MPKI:0.00
PC:22e9a     Total:3      MisBP:0   MisRate:0.00%    MPKI:0.00
PC:22e9e     Total:6      MisBP:0   MisRate:0.00%    MPKI:0.00
PC:22ea0     Total:3      MisBP:0   MisRate:0.00%    MPKI:0.00
PC:22ea2     Total:3      MisBP:0   MisRate:0.00%    MPKI:0.00
PC:22ea4     Total:3      MisBP:0   MisRate:0.00%    MPKI:0.00
PC:22ea6     Total:7      MisBP:0   MisRate:0.00%    MPKI:0.00
PC:22ea8     Total:3      MisBP:0   MisRate:0.00%    MPKI:0.00
PC:22eac     Total:3      MisBP:0   MisRate:0.00%    MPKI:0.00
PC:22eb0     Total:2      MisBP:0   MisRate:0.00%    MPKI:0.00
PC:18db2     Total:8      MisBP:0   MisRate:0.00%    MPKI:0.00
PC:168d6     Total:1      MisBP:0   MisRate:0.00%    MPKI:0.00
PC:18daa     Total:8      MisBP:0   MisRate:0.00%    MPKI:0.00
PC:2f766     Total:2      MisBP:0   MisRate:0.00%    MPKI:0.00
PC:168da     Total:1      MisBP:0   MisRate:0.00%    MPKI:0.00
PC:2eb8c     Total:1      MisBP:0   MisRate:0.00%    MPKI:0.00
PC:18dae     Total:8      MisBP:0   MisRate:0.00%    MPKI:0.00
PC:162d8     Total:6      MisBP:0   MisRate:0.00%    MPKI:0.00
PC:2f7f4     Total:2      MisBP:0   MisRate:0.00%    MPKI:0.00
PC:2f76a     Total:2      MisBP:0   MisRate:0.00%    MPKI:0.00
PC:168de     Total:1      MisBP:0   MisRate:0.00%    MPKI:0.00
PC:2f762     Total:2      MisBP:0   MisRate:0.00%    MPKI:0.00
PC:194ee     Total:1      MisBP:0   MisRate:0.00%    MPKI:0.00
PC:30536     Total:1      MisBP:0   MisRate:0.00%    MPKI:0.00
PC:168e0     Total:1      MisBP:0   MisRate:0.00%    MPKI:0.00
PC:2eb92     Total:1      MisBP:0   MisRate:0.00%    MPKI:0.00
PC:18db4     Total:7      MisBP:0   MisRate:0.00%    MPKI:0.00
PC:2f76e     Total:2      MisBP:0   MisRate:0.00%    MPKI:0.00
PC:2e61a     Total:1      MisBP:0   MisRate:0.00%    MPKI:0.00
PC:168e2     Total:1      MisBP:0   MisRate:0.00%    MPKI:0.00
PC:2eb94     Total:1      MisBP:0   MisRate:0.00%    MPKI:0.00
PC:18db6     Total:7      MisBP:0   MisRate:0.00%    MPKI:0.00
PC:30526     Total:1      MisBP:0   MisRate:0.00%    MPKI:0.00
PC:30cae     Total:1      MisBP:0   MisRate:0.00%    MPKI:0.00
PC:21796     Total:1      MisBP:0   MisRate:0.00%    MPKI:0.00
PC:10d1a     Total:3      MisBP:0   MisRate:0.00%    MPKI:0.00
PC:18e00     Total:2      MisBP:0   MisRate:0.00%    MPKI:0.00
PC:2eab2     Total:1      MisBP:0   MisRate:0.00%    MPKI:0.00
PC:10cd6     Total:14421115      MisBP:0   MisRate:0.00%    MPKI:0.00
PC:168e8     Total:1      MisBP:0   MisRate:0.00%    MPKI:0.00
PC:2eb9a     Total:1      MisBP:0   MisRate:0.00%    MPKI:0.00
PC:18dbc     Total:2      MisBP:0   MisRate:0.00%    MPKI:0.00
PC:194de     Total:1      MisBP:0   MisRate:0.00%    MPKI:0.00
PC:2f772     Total:2      MisBP:0   MisRate:0.00%    MPKI:0.00
PC:168d0     Total:1      MisBP:0   MisRate:0.00%    MPKI:0.00
PC:18da4     Total:9      MisBP:0   MisRate:0.00%    MPKI:0.00
PC:21780     Total:12      MisBP:0   MisRate:0.00%    MPKI:0.00
PC:2f75e     Total:1      MisBP:0   MisRate:0.00%    MPKI:0.00
PC:168d2     Total:1      MisBP:0   MisRate:0.00%    MPKI:0.00
PC:2eb84     Total:1      MisBP:0   MisRate:0.00%    MPKI:0.00
PC:18da6     Total:9      MisBP:0   MisRate:0.00%    MPKI:0.00
PC:1958e     Total:1      MisBP:0   MisRate:0.00%    MPKI:0.00
PC:21784     Total:2      MisBP:0   MisRate:0.00%    MPKI:0.00
PC:2eb86     Total:1      MisBP:0   MisRate:0.00%    MPKI:0.00
PC:18df4     Total:59      MisBP:0   MisRate:0.00%    MPKI:0.00
PC:194e2     Total:1      MisBP:0   MisRate:0.00%    MPKI:0.00
PC:3052a     Total:1      MisBP:0   MisRate:0.00%    MPKI:0.00
PC:168d8     Total:1      MisBP:0   MisRate:0.00%    MPKI:0.00
PC:2eb8a     Total:1      MisBP:0   MisRate:0.00%    MPKI:0.00
PC:3181c     Total:1      MisBP:0   MisRate:0.00%    MPKI:0.00
PC:194e6     Total:1      MisBP:0   MisRate:0.00%    MPKI:0.00
PC:3052e     Total:1      MisBP:0   MisRate:0.00%    MPKI:0.00
PC:1019c     Total:6      MisBP:0   MisRate:0.00%    MPKI:0.00
PC:2ea98     Total:1      MisBP:0   MisRate:0.00%    MPKI:0.00
PC:10d0e     Total:1      MisBP:0   MisRate:0.00%    MPKI:0.00
PC:18da8     Total:8      MisBP:0   MisRate:0.00%    MPKI:0.00
PC:2eb8e     Total:1      MisBP:0   MisRate:0.00%    MPKI:0.00
PC:18db0     Total:8      MisBP:0   MisRate:0.00%    MPKI:0.00
PC:2eb96     Total:1      MisBP:0   MisRate:0.00%    MPKI:0.00
PC:18db8     Total:7      MisBP:0   MisRate:0.00%    MPKI:0.00
PC:10154     Total:3      MisBP:0   MisRate:0.00%    MPKI:0.00
PC:101fc     Total:2      MisBP:0   MisRate:0.00%    MPKI:0.00
PC:2efd6     Total:1      MisBP:0   MisRate:0.00%    MPKI:0.00
PC:2eafe     Total:2      MisBP:0   MisRate:0.00%    MPKI:0.00
PC:217a0     Total:1      MisBP:0   MisRate:0.00%    MPKI:0.00
PC:2e61e     Total:1      MisBP:0   MisRate:0.00%    MPKI:0.00
PC:168e6     Total:1      MisBP:0   MisRate:0.00%    MPKI:0.00
PC:10cd4     Total:14421115      MisBP:0   MisRate:0.00%    MPKI:0.00
PC:2f776     Total:2      MisBP:0   MisRate:0.00%    MPKI:0.00
PC:2e622     Total:7      MisBP:0   MisRate:0.00%    MPKI:0.00
PC:2f778     Total:2      MisBP:0   MisRate:0.00%    MPKI:0.00
PC:2179c     Total:1      MisBP:0   MisRate:0.00%    MPKI:0.00
PC:2e626     Total:7      MisBP:0   MisRate:0.00%    MPKI:0.00
PC:2f77c     Total:2      MisBP:0   MisRate:0.00%    MPKI:0.00
PC:2e628     Total:7      MisBP:0   MisRate:0.00%    MPKI:0.00
PC:10916     Total:2      MisBP:0   MisRate:0.00%    MPKI:0.00
PC:10920     Total:2      MisBP:0   MisRate:0.00%    MPKI:0.00
PC:30cb8     Total:1      MisBP:0   MisRate:0.00%    MPKI:0.00
PC:2e62a     Total:7      MisBP:0   MisRate:0.00%    MPKI:0.00
PC:2e630     Total:7      MisBP:0   MisRate:0.00%    MPKI:0.00
PC:2e632     Total:7      MisBP:0   MisRate:0.00%    MPKI:0.00
PC:2e634     Total:14      MisBP:0   MisRate:0.00%    MPKI:0.00
PC:21814     Total:20      MisBP:0   MisRate:0.00%    MPKI:0.00
PC:10d0a     Total:1      MisBP:0   MisRate:0.00%    MPKI:0.00
PC:18df0     Total:118      MisBP:0   MisRate:0.00%    MPKI:0.00
PC:18d92     Total:4      MisBP:0   MisRate:0.00%    MPKI:0.00
PC:18e06     Total:1      MisBP:0   MisRate:0.00%    MPKI:0.00
PC:10ce4     Total:14421116      MisBP:0   MisRate:0.00%    MPKI:0.00
PC:18dca     Total:1      MisBP:0   MisRate:0.00%    MPKI:0.00
PC:10d2a     Total:14      MisBP:0   MisRate:0.00%    MPKI:0.00
PC:18e10     Total:1      MisBP:0   MisRate:0.00%    MPKI:0.00
PC:2f700     Total:1      MisBP:0   MisRate:0.00%    MPKI:0.00
PC:10926     Total:2      MisBP:0   MisRate:0.00%    MPKI:0.00
PC:217a6     Total:1      MisBP:0   MisRate:0.00%    MPKI:0.00
PC:2f74a     Total:1      MisBP:0   MisRate:0.00%    MPKI:0.00
PC:168be     Total:2      MisBP:0   MisRate:0.00%    MPKI:0.00
PC:10d20     Total:3      MisBP:0   MisRate:0.00%    MPKI:0.00
PC:2eae0     Total:2      MisBP:0   MisRate:0.00%    MPKI:0.00
PC:19596     Total:1      MisBP:0   MisRate:0.00%    MPKI:0.00
PC:2178c     Total:1      MisBP:0   MisRate:0.00%    MPKI:0.00
PC:2eae4     Total:2      MisBP:0   MisRate:0.00%    MPKI:0.00
PC:1959a     Total:1      MisBP:0   MisRate:0.00%    MPKI:0.00
PC:21790     Total:1      MisBP:0   MisRate:0.00%    MPKI:0.00
PC:194d2     Total:1      MisBP:0   MisRate:0.00%    MPKI:0.00
PC:2f80c     Total:3      MisBP:0   MisRate:0.00%    MPKI:0.00
PC:30a76     Total:2      MisBP:0   MisRate:0.00%    MPKI:0.00
PC:2e5d8     Total:1      MisBP:0   MisRate:0.00%    MPKI:0.00
PC:25262     Total:2      MisBP:0   MisRate:0.00%    MPKI:0.00
PC:1092c     Total:2      MisBP:0   MisRate:0.00%    MPKI:0.00
PC:18a12     Total:1      MisBP:0   MisRate:0.00%    MPKI:0.00
PC:10ce8     Total:14421116      MisBP:0   MisRate:0.00%    MPKI:0.00
PC:168fa     Total:1      MisBP:0   MisRate:0.00%    MPKI:0.00
PC:2ebac     Total:1      MisBP:0   MisRate:0.00%    MPKI:0.00
PC:2eadc     Total:2      MisBP:0   MisRate:0.00%    MPKI:0.00
PC:19592     Total:1      MisBP:0   MisRate:0.00%    MPKI:0.00
PC:21788     Total:1      MisBP:0   MisRate:0.00%    MPKI:0.00
PC:2f72c     Total:3      MisBP:0   MisRate:0.00%    MPKI:0.00
PC:2f750     Total:1      MisBP:0   MisRate:0.00%    MPKI:0.00
PC:30aac     Total:1      MisBP:0   MisRate:0.00%    MPKI:0.00
PC:10ce6     Total:14421116      MisBP:0   MisRate:0.00%    MPKI:0.00
PC:168f8     Total:1      MisBP:0   MisRate:0.00%    MPKI:0.00
PC:2ebaa     Total:1      MisBP:0   MisRate:0.00%    MPKI:0.00
PC:18dcc     Total:1      MisBP:0   MisRate:0.00%    MPKI:0.00
PC:2f702     Total:1      MisBP:0   MisRate:0.00%    MPKI:0.00
PC:10928     Total:2      MisBP:0   MisRate:0.00%    MPKI:0.00
PC:18a0e     Total:1      MisBP:0   MisRate:0.00%    MPKI:0.00
PC:217a8     Total:1      MisBP:0   MisRate:0.00%    MPKI:0.00
PC:10d16     Total:3      MisBP:0   MisRate:0.00%    MPKI:0.00
PC:2f6f4     Total:3      MisBP:0   MisRate:0.00%    MPKI:0.00
PC:54434     Total:1      MisBP:0   MisRate:0.00%    MPKI:0.00
PC:1091a     Total:2      MisBP:0   MisRate:0.00%    MPKI:0.00
PC:2eaee     Total:2      MisBP:0   MisRate:0.00%    MPKI:0.00
PC:2eaf2     Total:2      MisBP:0   MisRate:0.00%    MPKI:0.00
PC:2f6f8     Total:3      MisBP:0   MisRate:0.00%    MPKI:0.00
PC:54438     Total:1      MisBP:0   MisRate:0.00%    MPKI:0.00
PC:1091e     Total:2      MisBP:0   MisRate:0.00%    MPKI:0.00
PC:30cb6     Total:1      MisBP:0   MisRate:0.00%    MPKI:0.00
PC:2179e     Total:1      MisBP:0   MisRate:0.00%    MPKI:0.00
PC:18e04     Total:1      MisBP:0   MisRate:0.00%    MPKI:0.00
PC:18dfc     Total:6      MisBP:0   MisRate:0.00%    MPKI:0.00
PC:2eab0     Total:1      MisBP:0   MisRate:0.00%    MPKI:0.00
PC:217aa     Total:3      MisBP:0   MisRate:0.00%    MPKI:0.00
PC:2eaf6     Total:2      MisBP:0   MisRate:0.00%    MPKI:0.00
PC:10922     Total:2      MisBP:0   MisRate:0.00%    MPKI:0.00
PC:30cba     Total:1      MisBP:0   MisRate:0.00%    MPKI:0.00
PC:30a3a     Total:1      MisBP:0   MisRate:0.00%    MPKI:0.00
PC:162b4     Total:5      MisBP:0   MisRate:0.00%    MPKI:0.00
PC:217a2     Total:1      MisBP:0   MisRate:0.00%    MPKI:0.00
PC:168f4     Total:1      MisBP:0   MisRate:0.00%    MPKI:0.00
PC:168c4     Total:1      MisBP:0   MisRate:0.00%    MPKI:0.00
PC:217e8     Total:4      MisBP:0   MisRate:0.00%    MPKI:0.00
PC:10cde     Total:14421115      MisBP:0   MisRate:0.00%    MPKI:0.00
PC:168f0     Total:1      MisBP:0   MisRate:0.00%    MPKI:0.00
PC:18dc4     Total:1      MisBP:0   MisRate:0.00%    MPKI:0.00
PC:2eae8     Total:2      MisBP:0   MisRate:0.00%    MPKI:0.00
PC:1959e     Total:1      MisBP:0   MisRate:0.00%    MPKI:0.00
PC:21794     Total:1      MisBP:0   MisRate:0.00%    MPKI:0.00
PC:2f754     Total:1      MisBP:0   MisRate:0.00%    MPKI:0.00
PC:10ce2     Total:14421115      MisBP:0   MisRate:0.00%    MPKI:0.00
PC:18dac     Total:8      MisBP:0   MisRate:0.00%    MPKI:0.00
PC:2eba6     Total:1      MisBP:0   MisRate:0.00%    MPKI:0.00
PC:10d24     Total:3      MisBP:0   MisRate:0.00%    MPKI:0.00
PC:18e0a     Total:1      MisBP:0   MisRate:0.00%    MPKI:0.00
PC:2f758     Total:1      MisBP:0   MisRate:0.00%    MPKI:0.00
PC:11ad2     Total:1      MisBP:0   MisRate:0.00%    MPKI:0.00
PC:168cc     Total:1      MisBP:0   MisRate:0.00%    MPKI:0.00
PC:2eb7e     Total:1      MisBP:0   MisRate:0.00%    MPKI:0.00
PC:18da0     Total:3      MisBP:0   MisRate:0.00%    MPKI:0.00
PC:10d1e     Total:3      MisBP:0   MisRate:0.00%    MPKI:0.00
PC:18e38     Total:1      MisBP:0   MisRate:0.00%    MPKI:0.00
PC:18e34     Total:1      MisBP:0   MisRate:0.00%    MPKI:0.00
PC:2ec12     Total:1      MisBP:0   MisRate:0.00%    MPKI:0.00
PC:218d4     Total:10      MisBP:0   MisRate:0.00%    MPKI:0.00
PC:18044     Total:1      MisBP:0   MisRate:0.00%    MPKI:0.00
PC:2ec28     Total:3      MisBP:0   MisRate:0.00%    MPKI:0.00
PC:306b0     Total:1      MisBP:0   MisRate:0.00%    MPKI:0.00
PC:217fe     Total:2      MisBP:0   MisRate:0.00%    MPKI:0.00
PC:18d5e     Total:1      MisBP:0   MisRate:0.00%    MPKI:0.00
PC:1e970     Total:1      MisBP:0   MisRate:0.00%    MPKI:0.00
PC:217fa     Total:2      MisBP:0   MisRate:0.00%    MPKI:0.00
PC:2ec16     Total:1      MisBP:0   MisRate:0.00%    MPKI:0.00
PC:31804     Total:1      MisBP:0   MisRate:0.00%    MPKI:0.00
PC:2ecb0     Total:2      MisBP:0   MisRate:0.00%    MPKI:0.00
PC:218d8     Total:10      MisBP:0   MisRate:0.00%    MPKI:0.00
PC:306ae     Total:1      MisBP:0   MisRate:0.00%    MPKI:0.00
PC:18048     Total:1      MisBP:0   MisRate:0.00%    MPKI:0.00
PC:30270     Total:1      MisBP:0   MisRate:0.00%    MPKI:0.00
PC:30ed4     Total:1      MisBP:0   MisRate:0.00%    MPKI:0.00
PC:18e30     Total:1      MisBP:0   MisRate:0.00%    MPKI:0.00
PC:2ec20     Total:3      MisBP:0   MisRate:0.00%    MPKI:0.00
PC:31814     Total:1      MisBP:0   MisRate:0.00%    MPKI:0.00
PC:30a8c     Total:1      MisBP:0   MisRate:0.00%    MPKI:0.00
PC:18d54     Total:1      MisBP:0   MisRate:0.00%    MPKI:0.00
PC:1e966     Total:1      MisBP:0   MisRate:0.00%    MPKI:0.00
PC:2ec22     Total:3      MisBP:0   MisRate:0.00%    MPKI:0.00
PC:18de8     Total:3      MisBP:0   MisRate:0.00%    MPKI:0.00
PC:217f6     Total:3      MisBP:0   MisRate:0.00%    MPKI:0.00
PC:2ec2c     Total:3      MisBP:0   MisRate:0.00%    MPKI:0.00
PC:2ec0e     Total:1      MisBP:0   MisRate:0.00%    MPKI:0.00
PC:218d0     Total:5      MisBP:0   MisRate:0.00%    MPKI:0.00
PC:18040     Total:6      MisBP:0   MisRate:0.00%    MPKI:0.00
PC:21888     Total:3      MisBP:0   MisRate:0.00%    MPKI:0.00
PC:2ec24     Total:3      MisBP:0   MisRate:0.00%    MPKI:0.00
PC:30276     Total:1      MisBP:0   MisRate:0.00%    MPKI:0.00
PC:2ecb2     Total:2      MisBP:0   MisRate:0.00%    MPKI:0.00
PC:2ecc2     Total:1      MisBP:0   MisRate:0.00%    MPKI:0.00
PC:2eca4     Total:2      MisBP:0   MisRate:0.00%    MPKI:0.00
PC:2180a     Total:2      MisBP:0   MisRate:0.00%    MPKI:0.00
PC:218e4     Total:5      MisBP:0   MisRate:0.00%    MPKI:0.00
PC:30ee0     Total:1      MisBP:0   MisRate:0.00%    MPKI:0.00
PC:2ec38     Total:3      MisBP:0   MisRate:0.00%    MPKI:0.00
PC:30262     Total:1      MisBP:0   MisRate:0.00%    MPKI:0.00
PC:306a8     Total:1      MisBP:0   MisRate:0.00%    MPKI:0.00
PC:306a0     Total:1      MisBP:0   MisRate:0.00%    MPKI:0.00
PC:2eca2     Total:2      MisBP:0   MisRate:0.00%    MPKI:0.00
PC:2ec36     Total:3      MisBP:0   MisRate:0.00%    MPKI:0.00
PC:30266     Total:1      MisBP:0   MisRate:0.00%    MPKI:0.00
PC:306a4     Total:1      MisBP:0   MisRate:0.00%    MPKI:0.00
PC:2eca6     Total:2      MisBP:0   MisRate:0.00%    MPKI:0.00
PC:30268     Total:1      MisBP:0   MisRate:0.00%    MPKI:0.00
PC:2effe     Total:1      MisBP:0   MisRate:0.00%    MPKI:0.00
PC:18dda     Total:4      MisBP:0   MisRate:0.00%    MPKI:0.00
PC:306a6     Total:1      MisBP:0   MisRate:0.00%    MPKI:0.00
PC:2eca8     Total:2      MisBP:0   MisRate:0.00%    MPKI:0.00
PC:30ed8     Total:1      MisBP:0   MisRate:0.00%    MPKI:0.00
PC:21802     Total:2      MisBP:0   MisRate:0.00%    MPKI:0.00
PC:18e3c     Total:1      MisBP:0   MisRate:0.00%    MPKI:0.00
PC:2ecae     Total:2      MisBP:0   MisRate:0.00%    MPKI:0.00
PC:306ac     Total:1      MisBP:0   MisRate:0.00%    MPKI:0.00
PC:2ec1a     Total:2      MisBP:0   MisRate:0.00%    MPKI:0.00
PC:218dc     Total:5      MisBP:0   MisRate:0.00%    MPKI:0.00
PC:3026c     Total:1      MisBP:0   MisRate:0.00%    MPKI:0.00
PC:1804c     Total:1      MisBP:0   MisRate:0.00%    MPKI:0.00
PC:18df6     Total:59      MisBP:0   MisRate:0.00%    MPKI:0.00
PC:2ec30     Total:3      MisBP:0   MisRate:0.00%    MPKI:0.00
PC:21806     Total:2      MisBP:0   MisRate:0.00%    MPKI:0.00
PC:218e0     Total:10      MisBP:0   MisRate:0.00%    MPKI:0.00
PC:18d68     Total:5      MisBP:0   MisRate:0.00%    MPKI:0.00
PC:1e97a     Total:1      MisBP:0   MisRate:0.00%    MPKI:0.00
PC:18052     Total:1      MisBP:0   MisRate:0.00%    MPKI:0.00
PC:2ecaa     Total:2      MisBP:0   MisRate:0.00%    MPKI:0.00
PC:30ede     Total:1      MisBP:0   MisRate:0.00%    MPKI:0.00
PC:3180e     Total:1      MisBP:0   MisRate:0.00%    MPKI:0.00
PC:30ea2     Total:1      MisBP:0   MisRate:0.00%    MPKI:0.00
PC:2ebfa     Total:2      MisBP:0   MisRate:0.00%    MPKI:0.00
PC:18e1c     Total:1      MisBP:0   MisRate:0.00%    MPKI:0.00
PC:217d4     Total:21      MisBP:0   MisRate:0.00%    MPKI:0.00
PC:217d8     Total:21      MisBP:0   MisRate:0.00%    MPKI:0.00
PC:30a72     Total:2      MisBP:0   MisRate:0.00%    MPKI:0.00
PC:217da     Total:21      MisBP:0   MisRate:0.00%    MPKI:0.00
PC:103a4     Total:10      MisBP:0   MisRate:0.00%    MPKI:0.00
PC:317ac     Total:1      MisBP:0   MisRate:0.00%    MPKI:0.00
PC:218b4     Total:6      MisBP:0   MisRate:0.00%    MPKI:0.00
PC:2188c     Total:3      MisBP:0   MisRate:0.00%    MPKI:0.00
PC:18d3c     Total:3      MisBP:0   MisRate:0.00%    MPKI:0.00
PC:1e94e     Total:2      MisBP:0   MisRate:0.00%    MPKI:0.00
PC:3027a     Total:1      MisBP:0   MisRate:0.00%    MPKI:0.00
PC:217de     Total:21      MisBP:0   MisRate:0.00%    MPKI:0.00
PC:103a8     Total:1      MisBP:0   MisRate:0.00%    MPKI:0.00
PC:30a7a     Total:3      MisBP:0   MisRate:0.00%    MPKI:0.00
PC:10168     Total:3      MisBP:0   MisRate:0.00%    MPKI:0.00
PC:304fc     Total:1      MisBP:0   MisRate:0.00%    MPKI:0.00
PC:10164     Total:3      MisBP:0   MisRate:0.00%    MPKI:0.00
PC:2efda     Total:1      MisBP:0   MisRate:0.00%    MPKI:0.00
PC:1015c     Total:3      MisBP:0   MisRate:0.00%    MPKI:0.00
PC:2efe0     Total:1      MisBP:0   MisRate:0.00%    MPKI:0.00
PC:2f7e8     Total:1      MisBP:0   MisRate:0.00%    MPKI:0.00
PC:162cc     Total:1      MisBP:0   MisRate:0.00%    MPKI:0.00
PC:2efe8     Total:1      MisBP:0   MisRate:0.00%    MPKI:0.00
PC:21898     Total:6      MisBP:0   MisRate:0.00%    MPKI:0.00
PC:21890     Total:3      MisBP:0   MisRate:0.00%    MPKI:0.00
PC:2efec     Total:1      MisBP:0   MisRate:0.00%    MPKI:0.00
PC:30ea0     Total:1      MisBP:0   MisRate:0.00%    MPKI:0.00
PC:2ecbc     Total:2      MisBP:0   MisRate:0.00%    MPKI:0.00
PC:2ebf8     Total:2      MisBP:0   MisRate:0.00%    MPKI:0.00
PC:18e1a     Total:1      MisBP:0   MisRate:0.00%    MPKI:0.00
PC:194fa     Total:1      MisBP:0   MisRate:0.00%    MPKI:0.00
PC:2ec06     Total:1      MisBP:0   MisRate:0.00%    MPKI:0.00
PC:30a82     Total:2      MisBP:0   MisRate:0.00%    MPKI:0.00
PC:25256     Total:2      MisBP:0   MisRate:0.00%    MPKI:0.00
PC:2ecb8     Total:2      MisBP:0   MisRate:0.00%    MPKI:0.00
PC:18e24     Total:1      MisBP:0   MisRate:0.00%    MPKI:0.00
PC:306b6     Total:1      MisBP:0   MisRate:0.00%    MPKI:0.00
PC:2ec02     Total:1      MisBP:0   MisRate:0.00%    MPKI:0.00
PC:218c4     Total:6      MisBP:0   MisRate:0.00%    MPKI:0.00
PC:3180a     Total:1      MisBP:0   MisRate:0.00%    MPKI:0.00
PC:18e28     Total:1      MisBP:0   MisRate:0.00%    MPKI:0.00
PC:2525e     Total:2      MisBP:0   MisRate:0.00%    MPKI:0.00
PC:31818     Total:1      MisBP:0   MisRate:0.00%    MPKI:0.00
PC:218c8     Total:6      MisBP:0   MisRate:0.00%    MPKI:0.00
PC:2ec1c     Total:3      MisBP:0   MisRate:0.00%    MPKI:0.00
PC:217f2     Total:3      MisBP:0   MisRate:0.00%    MPKI:0.00
PC:30278     Total:1      MisBP:0   MisRate:0.00%    MPKI:0.00
PC:18e2c     Total:1      MisBP:0   MisRate:0.00%    MPKI:0.00
PC:2ec0a     Total:1      MisBP:0   MisRate:0.00%    MPKI:0.00
PC:218cc     Total:6      MisBP:0   MisRate:0.00%    MPKI:0.00
PC:217e6     Total:4      MisBP:0   MisRate:0.00%    MPKI:0.00
PC:217e2     Total:4      MisBP:0   MisRate:0.00%    MPKI:0.00
PC:2ecc6     Total:1      MisBP:0   MisRate:0.00%    MPKI:0.00
PC:103ac     Total:1      MisBP:0   MisRate:0.00%    MPKI:0.00
PC:30a7e     Total:3      MisBP:0   MisRate:0.00%    MPKI:0.00
PC:2f814     Total:3      MisBP:0   MisRate:0.00%    MPKI:0.00
PC:103b0     Total:1      MisBP:0   MisRate:0.00%    MPKI:0.00
PC:2525a     Total:2      MisBP:0   MisRate:0.00%    MPKI:0.00
PC:30048     Total:1      MisBP:1   MisRate:100.00%    MPKI:0.00
PC:1806a     Total:2      MisBP:1   MisRate:50.00%    MPKI:0.00
PC:2f7bc     Total:2      MisBP:1   MisRate:50.00%    MPKI:0.00
PC:18da2     Total:3      MisBP:1   MisRate:33.33%    MPKI:0.00
PC:30e6e     Total:1      MisBP:1   MisRate:100.00%    MPKI:0.00
PC:543e2     Total:3      MisBP:1   MisRate:33.33%    MPKI:0.00
PC:2f7b8     Total:1      MisBP:1   MisRate:100.00%    MPKI:0.00
PC:18fc8     Total:1      MisBP:1   MisRate:100.00%    MPKI:0.00
PC:30062     Total:1      MisBP:1   MisRate:100.00%    MPKI:0.00
PC:2eafc     Total:2      MisBP:1   MisRate:50.00%    MPKI:0.00
PC:2eac0     Total:1      MisBP:1   MisRate:100.00%    MPKI:0.00
PC:18050     Total:1      MisBP:1   MisRate:100.00%    MPKI:0.00
PC:2f6cc     Total:1      MisBP:1   MisRate:100.00%    MPKI:0.00
PC:2ede6     Total:1      MisBP:1   MisRate:100.00%    MPKI:0.00
PC:30054     Total:1      MisBP:1   MisRate:100.00%    MPKI:0.00
PC:189d8     Total:5      MisBP:1   MisRate:20.00%    MPKI:0.00
PC:1808a     Total:4      MisBP:1   MisRate:25.00%    MPKI:0.00
PC:2eb12     Total:2      MisBP:1   MisRate:50.00%    MPKI:0.00
PC:2f76c     Total:2      MisBP:1   MisRate:50.00%    MPKI:0.00
PC:30c8c     Total:1      MisBP:1   MisRate:100.00%    MPKI:0.00
PC:2f6d0     Total:1      MisBP:1   MisRate:100.00%    MPKI:0.00
PC:30a50     Total:2      MisBP:1   MisRate:50.00%    MPKI:0.00
PC:10cfa     Total:14421115      MisBP:1   MisRate:0.00%    MPKI:0.00
PC:21786     Total:2      MisBP:1   MisRate:50.00%    MPKI:0.00
PC:30a46     Total:2      MisBP:1   MisRate:50.00%    MPKI:0.00
PC:2f6fa     Total:3      MisBP:1   MisRate:33.33%    MPKI:0.00
PC:2ec0c     Total:1      MisBP:1   MisRate:100.00%    MPKI:0.00
PC:2f682     Total:1      MisBP:1   MisRate:100.00%    MPKI:0.00
PC:318b8     Total:1      MisBP:1   MisRate:100.00%    MPKI:0.00
PC:2eb4a     Total:1      MisBP:1   MisRate:100.00%    MPKI:0.00
PC:217f8     Total:3      MisBP:1   MisRate:33.33%    MPKI:0.00
PC:318ae     Total:1      MisBP:1   MisRate:100.00%    MPKI:0.00
PC:543dc     Total:3      MisBP:1   MisRate:33.33%    MPKI:0.00
PC:1809c     Total:1      MisBP:1   MisRate:100.00%    MPKI:0.00
PC:18d66     Total:1      MisBP:1   MisRate:100.00%    MPKI:0.00
PC:2ed10     Total:1      MisBP:1   MisRate:100.00%    MPKI:0.00
PC:22eae     Total:3      MisBP:1   MisRate:33.33%    MPKI:0.00
PC:30250     Total:1      MisBP:1   MisRate:100.00%    MPKI:0.00
PC:189e4     Total:6      MisBP:1   MisRate:16.67%    MPKI:0.00
PC:317aa     Total:1      MisBP:1   MisRate:100.00%    MPKI:0.00
PC:194d6     Total:1      MisBP:1   MisRate:100.00%    MPKI:0.00
PC:2f6e8     Total:2      MisBP:1   MisRate:50.00%    MPKI:0.00
PC:180ce     Total:1      MisBP:1   MisRate:100.00%    MPKI:0.00
PC:2f804     Total:1      MisBP:1   MisRate:100.00%    MPKI:0.00
PC:2ecd6     Total:1      MisBP:1   MisRate:100.00%    MPKI:0.00
PC:2f71e     Total:3      MisBP:1   MisRate:33.33%    MPKI:0.00
PC:18a18     Total:1      MisBP:1   MisRate:100.00%    MPKI:0.00
PC:18d4a     Total:3      MisBP:1   MisRate:33.33%    MPKI:0.00
PC:2e5d0     Total:1      MisBP:1   MisRate:100.00%    MPKI:0.00
PC:2f80e     Total:3      MisBP:1   MisRate:33.33%    MPKI:0.00
PC:2eb1c     Total:7      MisBP:1   MisRate:14.29%    MPKI:0.00
PC:10cd8     Total:14421115      MisBP:1   MisRate:0.00%    MPKI:0.00
PC:18dc2     Total:1      MisBP:1   MisRate:100.00%    MPKI:0.00
PC:2f6f0     Total:3      MisBP:2   MisRate:66.67%    MPKI:0.00
PC:2f71a     Total:3      MisBP:2   MisRate:66.67%    MPKI:0.00
PC:18dec     Total:3      MisBP:2   MisRate:66.67%    MPKI:0.00
PC:2eb2e     Total:9      MisBP:2   MisRate:22.22%    MPKI:0.00
PC:18d94     Total:4      MisBP:2   MisRate:50.00%    MPKI:0.00
PC:10158     Total:9      MisBP:3   MisRate:33.33%    MPKI:0.00
PC:21894     Total:3      MisBP:3   MisRate:100.00%    MPKI:0.00
PC:11ad6     Total:20      MisBP:3   MisRate:15.00%    MPKI:0.00
PC:10d2e     Total:18      MisBP:3   MisRate:16.67%    MPKI:0.00
PC:217e0     Total:21      MisBP:3   MisRate:14.29%    MPKI:0.00
PC:30690     Total:7      MisBP:3   MisRate:42.86%    MPKI:0.00
PC:18dfa     Total:63      MisBP:4   MisRate:6.35%    MPKI:0.00
PC:2e63a     Total:7      MisBP:6   MisRate:85.71%    MPKI:0.00
PC:10a76     Total:3999762      MisBP:10   MisRate:0.00%    MPKI:0.00
Totfetch:310003052  TotInsts:310000006  TotMis : inf%   MPKI : 0.00
=============finish sim!!!!!!=============
Done running SimPoint!
