Global frequency set at 1000000000000 ticks per second
 Register [printBranch()] ExitCallback !!!!!!! 
gem5 Simulator System.  https://www.gem5.org
gem5 is copyrighted software; use the --copyright option for details.

gem5 version 22.0.0.2
gem5 compiled Sep  7 2022 00:42:18
gem5 started Sep  7 2022 04:18:20
gem5 executing on a100, pid 2780911
command line: /data/zxf/gem5/gem5-prof/build/ARM/gem5.fast --outdir=/data/zxf/checkpoint/spec2006/445.gobmk/prof/gobmk_ckp_9 /data/zxf/gem5/gem5-prof/configs/example/se.py --cpu-type O3CPU --cpu-clock 1GHz --num-cpu 1 --caches --l2cache --l1i_size 32kB --l1d_size 32kB --l2_size 1MB --l1i_assoc 8 --l1d_assoc 8 --l2_assoc 16 --cacheline_size 64 --mem-type DDR3_2133_8x8 --mem-size 16GB --l1d-hwp-type=BOPPrefetcher --restore-simpoint-checkpoint -r 9 --checkpoint-dir /data/zxf/checkpoint/spec2006/445.gobmk/ckpt -i 13x13.tst -c gobmk_base.gcc41-64bit -o '--quiet --mode gtp'

info: Standard input is not a terminal, disabling listeners.
Resuming from /data/zxf/checkpoint/spec2006/445.gobmk/ckpt/cpt.simpoint_08_inst_169490000000_weight_0.019911_interval_300000000_warmup_10000000
Resuming from SimPoint #8, start_inst:169490000000, weight:0.019911, interval:300000000, warmup:10000000
Switch at curTick count:10000
Switched CPUS @ tick 114506441383000
[(<m5.objects.ArmCPU.ArmAtomicSimpleCPU object at 0x7f04e6edbbb0>, <m5.objects.ArmCPU.ArmO3CPU object at 0x7f04e6ef4e20>)]
switching cpus



+++++++++++++++++++++++++zxf print simpoint+++++++++++++++++++++++++++
Warmed up! Dumping and resetting stats!


=============start sim!!!!!!=============
PC:2d464     Total:39      MisBP:0   MisRate:0.00%    MPKI:0.00
PC:84e4c     Total:823610      MisBP:0   MisRate:0.00%    MPKI:0.00
PC:156d6     Total:135652      MisBP:0   MisRate:0.00%    MPKI:0.00
PC:1f8f8     Total:1291      MisBP:0   MisRate:0.00%    MPKI:0.00
PC:168a0     Total:77      MisBP:0   MisRate:0.00%    MPKI:0.00
PC:395fe     Total:199      MisBP:0   MisRate:0.00%    MPKI:0.00
PC:3f51c     Total:151      MisBP:0   MisRate:0.00%    MPKI:0.00
PC:16430     Total:26906      MisBP:0   MisRate:0.00%    MPKI:0.00
PC:3ecb8     Total:4902      MisBP:0   MisRate:0.00%    MPKI:0.00
PC:32c74     Total:1      MisBP:0   MisRate:0.00%    MPKI:0.00
PC:41cda     Total:3698      MisBP:0   MisRate:0.00%    MPKI:0.00
PC:18bee     Total:194159      MisBP:0   MisRate:0.00%    MPKI:0.00
PC:39600     Total:181      MisBP:0   MisRate:0.00%    MPKI:0.00
PC:16432     Total:26906      MisBP:0   MisRate:0.00%    MPKI:0.00
PC:39604     Total:181      MisBP:0   MisRate:0.00%    MPKI:0.00
PC:1af9e     Total:34019      MisBP:0   MisRate:0.00%    MPKI:0.00
PC:16436     Total:26906      MisBP:0   MisRate:0.00%    MPKI:0.00
PC:3ecbe     Total:4450      MisBP:0   MisRate:0.00%    MPKI:0.00
PC:84e3c     Total:711961      MisBP:0   MisRate:0.00%    MPKI:0.00
PC:3f970     Total:111      MisBP:0   MisRate:0.00%    MPKI:0.00
PC:16884     Total:118      MisBP:0   MisRate:0.00%    MPKI:0.00
PC:16888     Total:118      MisBP:0   MisRate:0.00%    MPKI:0.00
PC:1b8ce     Total:5205      MisBP:0   MisRate:0.00%    MPKI:0.00
PC:1b49c     Total:37519      MisBP:0   MisRate:0.00%    MPKI:0.00
PC:2fd12     Total:50921      MisBP:0   MisRate:0.00%    MPKI:0.00
PC:1688c     Total:118      MisBP:0   MisRate:0.00%    MPKI:0.00
PC:32c64     Total:8      MisBP:0   MisRate:0.00%    MPKI:0.00
PC:3f524     Total:151      MisBP:0   MisRate:0.00%    MPKI:0.00
PC:1b8d2     Total:5205      MisBP:0   MisRate:0.00%    MPKI:0.00
PC:1b4a0     Total:299291      MisBP:0   MisRate:0.00%    MPKI:0.00
PC:2fd16     Total:50919      MisBP:0   MisRate:0.00%    MPKI:0.00
PC:16890     Total:118      MisBP:0   MisRate:0.00%    MPKI:0.00
PC:1b8dc     Total:731      MisBP:0   MisRate:0.00%    MPKI:0.00
PC:1b4aa     Total:36657      MisBP:0   MisRate:0.00%    MPKI:0.00
PC:2fd20     Total:52822      MisBP:0   MisRate:0.00%    MPKI:0.00
PC:1689a     Total:60      MisBP:0   MisRate:0.00%    MPKI:0.00
PC:15bf2     Total:18774      MisBP:0   MisRate:0.00%    MPKI:0.00
PC:3961a     Total:638      MisBP:0   MisRate:0.00%    MPKI:0.00
PC:1644c     Total:24278      MisBP:0   MisRate:0.00%    MPKI:0.00
PC:3f53a     Total:6      MisBP:0   MisRate:0.00%    MPKI:0.00
PC:1644e     Total:24277      MisBP:0   MisRate:0.00%    MPKI:0.00
PC:3ecd6     Total:4450      MisBP:0   MisRate:0.00%    MPKI:0.00
PC:39624     Total:87      MisBP:0   MisRate:0.00%    MPKI:0.00
PC:3f542     Total:4      MisBP:0   MisRate:0.00%    MPKI:0.00
PC:16456     Total:24277      MisBP:0   MisRate:0.00%    MPKI:0.00
PC:1644a     Total:24283      MisBP:0   MisRate:0.00%    MPKI:0.00
PC:3ecde     Total:4206      MisBP:0   MisRate:0.00%    MPKI:0.00
PC:16458     Total:24023      MisBP:0   MisRate:0.00%    MPKI:0.00
PC:3f548     Total:4      MisBP:0   MisRate:0.00%    MPKI:0.00
PC:1645c     Total:24023      MisBP:0   MisRate:0.00%    MPKI:0.00
PC:3ece4     Total:4206      MisBP:0   MisRate:0.00%    MPKI:0.00
PC:3f54c     Total:4      MisBP:0   MisRate:0.00%    MPKI:0.00
PC:16460     Total:17631      MisBP:0   MisRate:0.00%    MPKI:0.00
PC:3ece8     Total:4206      MisBP:0   MisRate:0.00%    MPKI:0.00
PC:16440     Total:24093      MisBP:0   MisRate:0.00%    MPKI:0.00
PC:16438     Total:26905      MisBP:0   MisRate:0.00%    MPKI:0.00
PC:3960a     Total:173      MisBP:0   MisRate:0.00%    MPKI:0.00
PC:2f81a     Total:242      MisBP:0   MisRate:0.00%    MPKI:0.00
PC:1afa4     Total:34006      MisBP:0   MisRate:0.00%    MPKI:0.00
PC:3f528     Total:151      MisBP:0   MisRate:0.00%    MPKI:0.00
PC:1643c     Total:25248      MisBP:0   MisRate:0.00%    MPKI:0.00
PC:3ecc4     Total:4450      MisBP:0   MisRate:0.00%    MPKI:0.00
PC:3f52c     Total:151      MisBP:0   MisRate:0.00%    MPKI:0.00
PC:2fd0a     Total:2877      MisBP:0   MisRate:0.00%    MPKI:0.00
PC:3f530     Total:151      MisBP:0   MisRate:0.00%    MPKI:0.00
PC:16444     Total:24093      MisBP:0   MisRate:0.00%    MPKI:0.00
PC:39614     Total:638      MisBP:0   MisRate:0.00%    MPKI:0.00
PC:2f824     Total:226      MisBP:0   MisRate:0.00%    MPKI:0.00
PC:1afae     Total:32170      MisBP:0   MisRate:0.00%    MPKI:0.00
PC:39618     Total:638      MisBP:0   MisRate:0.00%    MPKI:0.00
PC:1afb2     Total:31389      MisBP:0   MisRate:0.00%    MPKI:0.00
PC:3f536     Total:151      MisBP:0   MisRate:0.00%    MPKI:0.00
PC:3d8c6     Total:8396      MisBP:0   MisRate:0.00%    MPKI:0.00
PC:1f8d4     Total:403      MisBP:0   MisRate:0.00%    MPKI:0.00
PC:17dae     Total:72824      MisBP:0   MisRate:0.00%    MPKI:0.00
PC:40636     Total:1122      MisBP:0   MisRate:0.00%    MPKI:0.00
PC:31666     Total:696      MisBP:0   MisRate:0.00%    MPKI:0.00
PC:1cdf0     Total:8177      MisBP:0   MisRate:0.00%    MPKI:0.00
PC:3b456     Total:29      MisBP:0   MisRate:0.00%    MPKI:0.00
PC:406fc     Total:1133      MisBP:0   MisRate:0.00%    MPKI:0.00
PC:7b228     Total:4      MisBP:0   MisRate:0.00%    MPKI:0.00
PC:156b2     Total:163269      MisBP:0   MisRate:0.00%    MPKI:0.00
PC:1f8d8     Total:384      MisBP:0   MisRate:0.00%    MPKI:0.00
PC:40e9e     Total:61      MisBP:0   MisRate:0.00%    MPKI:0.00
PC:17db2     Total:69295      MisBP:0   MisRate:0.00%    MPKI:0.00
PC:4063a     Total:1122      MisBP:0   MisRate:0.00%    MPKI:0.00
PC:1cdf4     Total:8177      MisBP:0   MisRate:0.00%    MPKI:0.00
PC:3b45a     Total:29      MisBP:0   MisRate:0.00%    MPKI:0.00
PC:40700     Total:1075      MisBP:0   MisRate:0.00%    MPKI:0.00
PC:3d8ca     Total:8396      MisBP:0   MisRate:0.00%    MPKI:0.00
PC:3af78     Total:176      MisBP:0   MisRate:0.00%    MPKI:0.00
PC:3af74     Total:220      MisBP:0   MisRate:0.00%    MPKI:0.00
PC:40e92     Total:63      MisBP:0   MisRate:0.00%    MPKI:0.00
PC:17da6     Total:89575      MisBP:0   MisRate:0.00%    MPKI:0.00
PC:1cde8     Total:8863      MisBP:0   MisRate:0.00%    MPKI:0.00
PC:3b44e     Total:29      MisBP:0   MisRate:0.00%    MPKI:0.00
PC:7b220     Total:5      MisBP:0   MisRate:0.00%    MPKI:0.00
PC:3d8be     Total:8406      MisBP:0   MisRate:0.00%    MPKI:0.00
PC:1f8d0     Total:403      MisBP:0   MisRate:0.00%    MPKI:0.00
PC:40ea2     Total:166      MisBP:0   MisRate:0.00%    MPKI:0.00
PC:40e96     Total:61      MisBP:0   MisRate:0.00%    MPKI:0.00
PC:17daa     Total:89571      MisBP:0   MisRate:0.00%    MPKI:0.00
PC:31662     Total:1459      MisBP:0   MisRate:0.00%    MPKI:0.00
PC:1cdec     Total:8863      MisBP:0   MisRate:0.00%    MPKI:0.00
PC:3b452     Total:29      MisBP:0   MisRate:0.00%    MPKI:0.00
PC:406f8     Total:1169      MisBP:0   MisRate:0.00%    MPKI:0.00
PC:7b224     Total:5      MisBP:0   MisRate:0.00%    MPKI:0.00
PC:3d8c2     Total:8396      MisBP:0   MisRate:0.00%    MPKI:0.00
PC:406fa     Total:1133      MisBP:0   MisRate:0.00%    MPKI:0.00
PC:93144     Total:2645      MisBP:0   MisRate:0.00%    MPKI:0.00
PC:17e80     Total:45181      MisBP:0   MisRate:0.00%    MPKI:0.00
PC:40708     Total:1075      MisBP:0   MisRate:0.00%    MPKI:0.00
PC:beff9cb8     Total:1      MisBP:0   MisRate:0.00%    MPKI:0.00
PC:3b03c     Total:185      MisBP:0   MisRate:0.00%    MPKI:0.00
PC:93132     Total:4419      MisBP:0   MisRate:0.00%    MPKI:0.00
PC:17e6e     Total:54894      MisBP:0   MisRate:0.00%    MPKI:0.00
PC:406f6     Total:1171      MisBP:0   MisRate:0.00%    MPKI:0.00
PC:1cdfc     Total:8175      MisBP:0   MisRate:0.00%    MPKI:0.00
PC:9313a     Total:3804      MisBP:0   MisRate:0.00%    MPKI:0.00
PC:17e76     Total:45906      MisBP:0   MisRate:0.00%    MPKI:0.00
PC:406fe     Total:1133      MisBP:0   MisRate:0.00%    MPKI:0.00
PC:7b22a     Total:4      MisBP:0   MisRate:0.00%    MPKI:0.00
PC:3d8c8     Total:8396      MisBP:0   MisRate:0.00%    MPKI:0.00
PC:1f8da     Total:404      MisBP:0   MisRate:0.00%    MPKI:0.00
PC:40702     Total:1075      MisBP:0   MisRate:0.00%    MPKI:0.00
PC:1b494     Total:856      MisBP:0   MisRate:0.00%    MPKI:0.00
PC:40640     Total:1570      MisBP:0   MisRate:0.00%    MPKI:0.00
PC:17db6     Total:69295      MisBP:0   MisRate:0.00%    MPKI:0.00
PC:4063e     Total:1832      MisBP:0   MisRate:0.00%    MPKI:0.00
PC:1cdf8     Total:8177      MisBP:0   MisRate:0.00%    MPKI:0.00
PC:3b45e     Total:29      MisBP:0   MisRate:0.00%    MPKI:0.00
PC:3d8ce     Total:8396      MisBP:0   MisRate:0.00%    MPKI:0.00
PC:1f8e0     Total:404      MisBP:0   MisRate:0.00%    MPKI:0.00
PC:40ea4     Total:166      MisBP:0   MisRate:0.00%    MPKI:0.00
PC:17db8     Total:69293      MisBP:0   MisRate:0.00%    MPKI:0.00
PC:39b0a     Total:108      MisBP:0   MisRate:0.00%    MPKI:0.00
PC:31670     Total:511      MisBP:0   MisRate:0.00%    MPKI:0.00
PC:1cdfa     Total:8177      MisBP:0   MisRate:0.00%    MPKI:0.00
PC:3b460     Total:29      MisBP:0   MisRate:0.00%    MPKI:0.00
PC:40706     Total:1075      MisBP:0   MisRate:0.00%    MPKI:0.00
PC:2ef78     Total:8      MisBP:0   MisRate:0.00%    MPKI:0.00
PC:1a702     Total:9508      MisBP:0   MisRate:0.00%    MPKI:0.00
PC:31672     Total:510      MisBP:0   MisRate:0.00%    MPKI:0.00
PC:1c222     Total:19111      MisBP:0   MisRate:0.00%    MPKI:0.00
PC:1c218     Total:21659      MisBP:0   MisRate:0.00%    MPKI:0.00
PC:3767c     Total:144      MisBP:0   MisRate:0.00%    MPKI:0.00
PC:3c6be     Total:70743      MisBP:0   MisRate:0.00%    MPKI:0.00
PC:1c21c     Total:21640      MisBP:0   MisRate:0.00%    MPKI:0.00
PC:30660     Total:3151      MisBP:0   MisRate:0.00%    MPKI:0.00
PC:3c6c2     Total:67171      MisBP:0   MisRate:0.00%    MPKI:0.00
PC:30a94     Total:4      MisBP:0   MisRate:0.00%    MPKI:0.00
PC:3c6c4     Total:67171      MisBP:0   MisRate:0.00%    MPKI:0.00
PC:1c216     Total:22111      MisBP:0   MisRate:0.00%    MPKI:0.00
PC:970b4     Total:51      MisBP:0   MisRate:0.00%    MPKI:0.00
PC:30666     Total:3150      MisBP:0   MisRate:0.00%    MPKI:0.00
PC:3c6c8     Total:67171      MisBP:0   MisRate:0.00%    MPKI:0.00
PC:30a9a     Total:4      MisBP:0   MisRate:0.00%    MPKI:0.00
PC:1c224     Total:19108      MisBP:0   MisRate:0.00%    MPKI:0.00
PC:30a9e     Total:4      MisBP:0   MisRate:0.00%    MPKI:0.00
PC:1c228     Total:19453      MisBP:0   MisRate:0.00%    MPKI:0.00
PC:970ba     Total:45      MisBP:0   MisRate:0.00%    MPKI:0.00
PC:30a84     Total:4      MisBP:0   MisRate:0.00%    MPKI:0.00
PC:37668     Total:1296      MisBP:0   MisRate:0.00%    MPKI:0.00
PC:3c6aa     Total:72153      MisBP:0   MisRate:0.00%    MPKI:0.00
PC:3c6ac     Total:71594      MisBP:0   MisRate:0.00%    MPKI:0.00
PC:30a7e     Total:4      MisBP:0   MisRate:0.00%    MPKI:0.00
PC:1c208     Total:22115      MisBP:0   MisRate:0.00%    MPKI:0.00
PC:3064c     Total:3307      MisBP:0   MisRate:0.00%    MPKI:0.00
PC:30a82     Total:4      MisBP:0   MisRate:0.00%    MPKI:0.00
PC:1c20c     Total:22115      MisBP:0   MisRate:0.00%    MPKI:0.00
PC:3066c     Total:3149      MisBP:0   MisRate:0.00%    MPKI:0.00
PC:1c20e     Total:22115      MisBP:0   MisRate:0.00%    MPKI:0.00
PC:3c6b4     Total:71592      MisBP:0   MisRate:0.00%    MPKI:0.00
PC:30a88     Total:4      MisBP:0   MisRate:0.00%    MPKI:0.00
PC:1c212     Total:22113      MisBP:0   MisRate:0.00%    MPKI:0.00
PC:970a4     Total:51      MisBP:0   MisRate:0.00%    MPKI:0.00
PC:30656     Total:3289      MisBP:0   MisRate:0.00%    MPKI:0.00
PC:3c6b8     Total:71592      MisBP:0   MisRate:0.00%    MPKI:0.00
PC:30a8c     Total:4      MisBP:0   MisRate:0.00%    MPKI:0.00
PC:386d6     Total:1280      MisBP:0   MisRate:0.00%    MPKI:0.00
PC:386ce     Total:1192      MisBP:0   MisRate:0.00%    MPKI:0.00
PC:3e5ec     Total:2      MisBP:0   MisRate:0.00%    MPKI:0.00
PC:15500     Total:155381      MisBP:0   MisRate:0.00%    MPKI:0.00
PC:1f722     Total:915      MisBP:0   MisRate:0.00%    MPKI:0.00
PC:617be     Total:20      MisBP:0   MisRate:0.00%    MPKI:0.00
PC:3e5f0     Total:2      MisBP:0   MisRate:0.00%    MPKI:0.00
PC:15504     Total:155349      MisBP:0   MisRate:0.00%    MPKI:0.00
PC:617c2     Total:1      MisBP:0   MisRate:0.00%    MPKI:0.00
PC:3d700     Total:52976      MisBP:0   MisRate:0.00%    MPKI:0.00
PC:3e5f4     Total:1      MisBP:0   MisRate:0.00%    MPKI:0.00
PC:15508     Total:155317      MisBP:0   MisRate:0.00%    MPKI:0.00
PC:84c7e     Total:356      MisBP:0   MisRate:0.00%    MPKI:0.00
PC:386dc     Total:1302      MisBP:0   MisRate:0.00%    MPKI:0.00
PC:617ce     Total:1      MisBP:0   MisRate:0.00%    MPKI:0.00
PC:386e2     Total:1302      MisBP:0   MisRate:0.00%    MPKI:0.00
PC:15514     Total:155252      MisBP:0   MisRate:0.00%    MPKI:0.00
PC:1551c     Total:152235      MisBP:0   MisRate:0.00%    MPKI:0.00
PC:418b2     Total:2045      MisBP:0   MisRate:0.00%    MPKI:0.00
PC:1c22a     Total:19453      MisBP:0   MisRate:0.00%    MPKI:0.00
PC:970bc     Total:45      MisBP:0   MisRate:0.00%    MPKI:0.00
PC:3066e     Total:140000      MisBP:0   MisRate:0.00%    MPKI:0.00
PC:3c6d0     Total:67171      MisBP:0   MisRate:0.00%    MPKI:0.00
PC:30aa2     Total:4      MisBP:0   MisRate:0.00%    MPKI:0.00
PC:1c22c     Total:19449      MisBP:0   MisRate:0.00%    MPKI:0.00
PC:6077c     Total:30      MisBP:0   MisRate:0.00%    MPKI:0.00
PC:37690     Total:148      MisBP:0   MisRate:0.00%    MPKI:0.00
PC:1c204     Total:22086      MisBP:0   MisRate:0.00%    MPKI:0.00
PC:3c6d2     Total:67171      MisBP:0   MisRate:0.00%    MPKI:0.00
PC:1928c     Total:8084      MisBP:0   MisRate:0.00%    MPKI:0.00
PC:16a36     Total:2312      MisBP:0   MisRate:0.00%    MPKI:0.00
PC:386be     Total:2860      MisBP:0   MisRate:0.00%    MPKI:0.00
PC:3e5dc     Total:6      MisBP:0   MisRate:0.00%    MPKI:0.00
PC:154f0     Total:173736      MisBP:0   MisRate:0.00%    MPKI:0.00
PC:1f712     Total:1155      MisBP:0   MisRate:0.00%    MPKI:0.00
PC:3ed00     Total:11102      MisBP:0   MisRate:0.00%    MPKI:0.00
PC:39644     Total:199      MisBP:0   MisRate:0.00%    MPKI:0.00
PC:16476     Total:17629      MisBP:0   MisRate:0.00%    MPKI:0.00
PC:15c12     Total:5751      MisBP:0   MisRate:0.00%    MPKI:0.00
PC:3ecfe     Total:11862      MisBP:0   MisRate:0.00%    MPKI:0.00
PC:1b4ba     Total:35909      MisBP:0   MisRate:0.00%    MPKI:0.00
PC:39646     Total:199      MisBP:0   MisRate:0.00%    MPKI:0.00
PC:16478     Total:17530      MisBP:0   MisRate:0.00%    MPKI:0.00
PC:15c14     Total:5751      MisBP:0   MisRate:0.00%    MPKI:0.00
PC:39b1e     Total:85      MisBP:0   MisRate:0.00%    MPKI:0.00
PC:39648     Total:199      MisBP:0   MisRate:0.00%    MPKI:0.00
PC:1647a     Total:17529      MisBP:0   MisRate:0.00%    MPKI:0.00
PC:3f9ba     Total:1578      MisBP:0   MisRate:0.00%    MPKI:0.00
PC:168ce     Total:13631      MisBP:0   MisRate:0.00%    MPKI:0.00
PC:168d4     Total:13631      MisBP:0   MisRate:0.00%    MPKI:0.00
PC:16070     Total:31843      MisBP:0   MisRate:0.00%    MPKI:0.00
PC:30194     Total:119      MisBP:0   MisRate:0.00%    MPKI:0.00
PC:1b91e     Total:4804      MisBP:0   MisRate:0.00%    MPKI:0.00
PC:15c0a     Total:16494      MisBP:0   MisRate:0.00%    MPKI:0.00
PC:16462     Total:17631      MisBP:0   MisRate:0.00%    MPKI:0.00
PC:39b0e     Total:108      MisBP:0   MisRate:0.00%    MPKI:0.00
PC:16466     Total:17631      MisBP:0   MisRate:0.00%    MPKI:0.00
PC:1b4ac     Total:36657      MisBP:0   MisRate:0.00%    MPKI:0.00
PC:39b12     Total:99      MisBP:0   MisRate:0.00%    MPKI:0.00
PC:3f556     Total:37062      MisBP:0   MisRate:0.00%    MPKI:0.00
PC:1646a     Total:17631      MisBP:0   MisRate:0.00%    MPKI:0.00
PC:1646e     Total:17631      MisBP:0   MisRate:0.00%    MPKI:0.00
PC:3f9c8     Total:395      MisBP:0   MisRate:0.00%    MPKI:0.00
PC:3ecf6     Total:11862      MisBP:0   MisRate:0.00%    MPKI:0.00
PC:39b1a     Total:85      MisBP:0   MisRate:0.00%    MPKI:0.00
PC:16472     Total:17631      MisBP:0   MisRate:0.00%    MPKI:0.00
PC:15c0e     Total:16494      MisBP:0   MisRate:0.00%    MPKI:0.00
PC:3ecfa     Total:11862      MisBP:0   MisRate:0.00%    MPKI:0.00
PC:1b4b6     Total:35909      MisBP:0   MisRate:0.00%    MPKI:0.00
PC:39b1c     Total:85      MisBP:0   MisRate:0.00%    MPKI:0.00
PC:16474     Total:17629      MisBP:0   MisRate:0.00%    MPKI:0.00
PC:47bb0     Total:517      MisBP:0   MisRate:0.00%    MPKI:0.00
PC:beffc1d4     Total:1      MisBP:0   MisRate:0.00%    MPKI:0.00
PC:3d558     Total:444      MisBP:0   MisRate:0.00%    MPKI:0.00
PC:33336     Total:19      MisBP:0   MisRate:0.00%    MPKI:0.00
PC:2e72a     Total:105      MisBP:0   MisRate:0.00%    MPKI:0.00
PC:19eb4     Total:154      MisBP:0   MisRate:0.00%    MPKI:0.00
PC:beffc1d8     Total:1      MisBP:0   MisRate:0.00%    MPKI:0.00
PC:3d55c     Total:444      MisBP:0   MisRate:0.00%    MPKI:0.00
PC:99d88     Total:5      MisBP:0   MisRate:0.00%    MPKI:0.00
PC:33332     Total:19      MisBP:0   MisRate:0.00%    MPKI:0.00
PC:3333a     Total:17      MisBP:0   MisRate:0.00%    MPKI:0.00
PC:beffc1dc     Total:1      MisBP:0   MisRate:0.00%    MPKI:0.00
PC:3d560     Total:444      MisBP:0   MisRate:0.00%    MPKI:0.00
PC:47bb4     Total:517      MisBP:0   MisRate:0.00%    MPKI:0.00
PC:3333e     Total:6      MisBP:0   MisRate:0.00%    MPKI:0.00
PC:37274     Total:80827      MisBP:0   MisRate:0.00%    MPKI:0.00
PC:2cc20     Total:233      MisBP:0   MisRate:0.00%    MPKI:0.00
PC:41496     Total:2365      MisBP:0   MisRate:0.00%    MPKI:0.00
PC:168fc     Total:10817      MisBP:0   MisRate:0.00%    MPKI:0.00
PC:168dc     Total:13006      MisBP:0   MisRate:0.00%    MPKI:0.00
PC:168ee     Total:10817      MisBP:0   MisRate:0.00%    MPKI:0.00
PC:1608a     Total:18976      MisBP:0   MisRate:0.00%    MPKI:0.00
PC:3f176     Total:3      MisBP:0   MisRate:0.00%    MPKI:0.00
PC:1b934     Total:5546      MisBP:0   MisRate:0.00%    MPKI:0.00
PC:3f9de     Total:394      MisBP:0   MisRate:0.00%    MPKI:0.00
PC:168f2     Total:10817      MisBP:0   MisRate:0.00%    MPKI:0.00
PC:3f9e8     Total:892      MisBP:0   MisRate:0.00%    MPKI:0.00
PC:3887a     Total:254      MisBP:0   MisRate:0.00%    MPKI:0.00
PC:3c288     Total:38897      MisBP:0   MisRate:0.00%    MPKI:0.00
PC:2e722     Total:105      MisBP:0   MisRate:0.00%    MPKI:0.00
PC:19eac     Total:304      MisBP:0   MisRate:0.00%    MPKI:0.00
PC:beffc1d0     Total:1      MisBP:0   MisRate:0.00%    MPKI:0.00
PC:3d554     Total:444      MisBP:0   MisRate:0.00%    MPKI:0.00
PC:99d80     Total:5      MisBP:0   MisRate:0.00%    MPKI:0.00
PC:47ba8     Total:1804      MisBP:0   MisRate:0.00%    MPKI:0.00
PC:42076     Total:21      MisBP:0   MisRate:0.00%    MPKI:0.00
PC:41c40     Total:2      MisBP:0   MisRate:0.00%    MPKI:0.00
PC:2d3ca     Total:116      MisBP:0   MisRate:0.00%    MPKI:0.00
PC:30084     Total:8      MisBP:0   MisRate:0.00%    MPKI:0.00
PC:1b80e     Total:38698      MisBP:0   MisRate:0.00%    MPKI:0.00
PC:1b3dc     Total:1125      MisBP:0   MisRate:0.00%    MPKI:0.00
PC:2fc52     Total:117      MisBP:0   MisRate:0.00%    MPKI:0.00
PC:3f8b8     Total:30      MisBP:0   MisRate:0.00%    MPKI:0.00
PC:167cc     Total:17700      MisBP:0   MisRate:0.00%    MPKI:0.00
PC:18f86     Total:16416      MisBP:0   MisRate:0.00%    MPKI:0.00
PC:18f8a     Total:16416      MisBP:0   MisRate:0.00%    MPKI:0.00
PC:41c44     Total:2      MisBP:0   MisRate:0.00%    MPKI:0.00
PC:2d3ce     Total:116      MisBP:0   MisRate:0.00%    MPKI:0.00
PC:290a0     Total:153      MisBP:0   MisRate:0.00%    MPKI:0.00
PC:99d10     Total:62      MisBP:0   MisRate:0.00%    MPKI:0.00
PC:332c2     Total:128      MisBP:0   MisRate:0.00%    MPKI:0.00
PC:47b38     Total:9848      MisBP:0   MisRate:0.00%    MPKI:0.00
PC:290aa     Total:71      MisBP:0   MisRate:0.00%    MPKI:0.00
PC:995ea     Total:4      MisBP:0   MisRate:0.00%    MPKI:0.00
PC:32b9a     Total:56      MisBP:0   MisRate:0.00%    MPKI:0.00
PC:84d72     Total:836146      MisBP:0   MisRate:0.00%    MPKI:0.00
PC:155fc     Total:48772      MisBP:0   MisRate:0.00%    MPKI:0.00
PC:1f81e     Total:344      MisBP:0   MisRate:0.00%    MPKI:0.00
PC:167c6     Total:17700      MisBP:0   MisRate:0.00%    MPKI:0.00
PC:41c3e     Total:6      MisBP:0   MisRate:0.00%    MPKI:0.00
PC:18b52     Total:10353      MisBP:0   MisRate:0.00%    MPKI:0.00
PC:2d3c8     Total:116      MisBP:0   MisRate:0.00%    MPKI:0.00
PC:3d920     Total:1006      MisBP:0   MisRate:0.00%    MPKI:0.00
PC:84d74     Total:836056      MisBP:0   MisRate:0.00%    MPKI:0.00
PC:30080     Total:8      MisBP:0   MisRate:0.00%    MPKI:0.00
PC:1b80a     Total:38698      MisBP:0   MisRate:0.00%    MPKI:0.00
PC:1b3d8     Total:1125      MisBP:0   MisRate:0.00%    MPKI:0.00
PC:2fc4e     Total:117      MisBP:0   MisRate:0.00%    MPKI:0.00
PC:3f8b4     Total:30      MisBP:0   MisRate:0.00%    MPKI:0.00
PC:167c8     Total:17700      MisBP:0   MisRate:0.00%    MPKI:0.00
PC:42072     Total:21      MisBP:0   MisRate:0.00%    MPKI:0.00
PC:3af2c     Total:238      MisBP:0   MisRate:0.00%    MPKI:0.00
PC:3d93e     Total:31      MisBP:0   MisRate:0.00%    MPKI:0.00
PC:99d38     Total:99      MisBP:0   MisRate:0.00%    MPKI:0.00
PC:332ea     Total:111      MisBP:0   MisRate:0.00%    MPKI:0.00
PC:38f2c     Total:193      MisBP:0   MisRate:0.00%    MPKI:0.00
PC:1a8c6     Total:922      MisBP:0   MisRate:0.00%    MPKI:0.00
PC:15d5e     Total:7061      MisBP:0   MisRate:0.00%    MPKI:0.00
PC:290e6     Total:13      MisBP:0   MisRate:0.00%    MPKI:0.00
PC:3d95c     Total:1024      MisBP:0   MisRate:0.00%    MPKI:0.00
PC:290c8     Total:13      MisBP:0   MisRate:0.00%    MPKI:0.00
PC:31616     Total:13      MisBP:0   MisRate:0.00%    MPKI:0.00
PC:1cda0     Total:158062      MisBP:0   MisRate:0.00%    MPKI:0.00
PC:3161a     Total:13      MisBP:0   MisRate:0.00%    MPKI:0.00
PC:1cda4     Total:15264      MisBP:0   MisRate:0.00%    MPKI:0.00
PC:3161e     Total:13      MisBP:0   MisRate:0.00%    MPKI:0.00
PC:1cda8     Total:15264      MisBP:0   MisRate:0.00%    MPKI:0.00
PC:61928     Total:12      MisBP:0   MisRate:0.00%    MPKI:0.00
PC:3af36     Total:223      MisBP:0   MisRate:0.00%    MPKI:0.00
PC:15d46     Total:25894      MisBP:0   MisRate:0.00%    MPKI:0.00
PC:99d1a     Total:62      MisBP:0   MisRate:0.00%    MPKI:0.00
PC:47b42     Total:8178      MisBP:0   MisRate:0.00%    MPKI:0.00
PC:38f0e     Total:546      MisBP:0   MisRate:0.00%    MPKI:0.00
PC:15d40     Total:25895      MisBP:0   MisRate:0.00%    MPKI:0.00
PC:1a756     Total:8478      MisBP:0   MisRate:0.00%    MPKI:0.00
PC:38dbc     Total:1      MisBP:0   MisRate:0.00%    MPKI:0.00
PC:3d924     Total:1006      MisBP:0   MisRate:0.00%    MPKI:0.00
PC:38f12     Total:546      MisBP:0   MisRate:0.00%    MPKI:0.00
PC:2d3c4     Total:116      MisBP:0   MisRate:0.00%    MPKI:0.00
PC:38f1e     Total:225      MisBP:0   MisRate:0.00%    MPKI:0.00
PC:15d50     Total:25894      MisBP:0   MisRate:0.00%    MPKI:0.00
PC:38f22     Total:225      MisBP:0   MisRate:0.00%    MPKI:0.00
PC:15d54     Total:25894      MisBP:0   MisRate:0.00%    MPKI:0.00
PC:38f24     Total:225      MisBP:0   MisRate:0.00%    MPKI:0.00
PC:1a8be     Total:925      MisBP:0   MisRate:0.00%    MPKI:0.00
PC:3ee42     Total:957      MisBP:0   MisRate:0.00%    MPKI:0.00
PC:1a770     Total:8004      MisBP:0   MisRate:0.00%    MPKI:0.00
PC:1f6ec     Total:4476      MisBP:0   MisRate:0.00%    MPKI:0.00
PC:517e2     Total:35455      MisBP:0   MisRate:0.00%    MPKI:0.00
PC:99bca     Total:2      MisBP:0   MisRate:0.00%    MPKI:0.00
PC:479f2     Total:1238      MisBP:0   MisRate:0.00%    MPKI:0.00
PC:3317c     Total:14      MisBP:0   MisRate:0.00%    MPKI:0.00
PC:3e5b6     Total:1      MisBP:0   MisRate:0.00%    MPKI:0.00
PC:154ca     Total:2052      MisBP:0   MisRate:0.00%    MPKI:0.00
PC:336fe     Total:89      MisBP:0   MisRate:0.00%    MPKI:0.00
PC:47f74     Total:2104      MisBP:0   MisRate:0.00%    MPKI:0.00
PC:3cf6c     Total:217266      MisBP:0   MisRate:0.00%    MPKI:0.00
PC:3e5ba     Total:1      MisBP:0   MisRate:0.00%    MPKI:0.00
PC:154ce     Total:2048      MisBP:0   MisRate:0.00%    MPKI:0.00
PC:32a6c     Total:101      MisBP:0   MisRate:0.00%    MPKI:0.00
PC:84c44     Total:606      MisBP:0   MisRate:0.00%    MPKI:0.00
PC:1f6f0     Total:2237      MisBP:0   MisRate:0.00%    MPKI:0.00
PC:6178c     Total:4      MisBP:0   MisRate:0.00%    MPKI:0.00
PC:3d6e2     Total:53      MisBP:0   MisRate:0.00%    MPKI:0.00
PC:3e5c0     Total:1      MisBP:0   MisRate:0.00%    MPKI:0.00
PC:47f84     Total:2026      MisBP:0   MisRate:0.00%    MPKI:0.00
PC:3e5c4     Total:8      MisBP:0   MisRate:0.00%    MPKI:0.00
PC:154d8     Total:78734      MisBP:0   MisRate:0.00%    MPKI:0.00
PC:84c4e     Total:608      MisBP:0   MisRate:0.00%    MPKI:0.00
PC:3370c     Total:47      MisBP:0   MisRate:0.00%    MPKI:0.00
PC:47f82     Total:2026      MisBP:0   MisRate:0.00%    MPKI:0.00
PC:386a8     Total:4422      MisBP:0   MisRate:0.00%    MPKI:0.00
PC:3d6ea     Total:46      MisBP:0   MisRate:0.00%    MPKI:0.00
PC:154da     Total:78722      MisBP:0   MisRate:0.00%    MPKI:0.00
PC:33708     Total:47      MisBP:0   MisRate:0.00%    MPKI:0.00
PC:3e5ac     Total:1      MisBP:0   MisRate:0.00%    MPKI:0.00
PC:154c0     Total:2054      MisBP:0   MisRate:0.00%    MPKI:0.00
PC:336f4     Total:90      MisBP:0   MisRate:0.00%    MPKI:0.00
PC:47f6a     Total:2104      MisBP:0   MisRate:0.00%    MPKI:0.00
PC:1f6e2     Total:2244      MisBP:0   MisRate:0.00%    MPKI:0.00
PC:6177c     Total:4      MisBP:0   MisRate:0.00%    MPKI:0.00
PC:38690     Total:4083      MisBP:0   MisRate:0.00%    MPKI:0.00
PC:beffbbe8     Total:1      MisBP:0   MisRate:0.00%    MPKI:0.00
PC:3f8ac     Total:30      MisBP:0   MisRate:0.00%    MPKI:0.00
PC:3eb4c     Total:343      MisBP:0   MisRate:0.00%    MPKI:0.00
PC:3f3b2     Total:24      MisBP:0   MisRate:0.00%    MPKI:0.00
PC:162c6     Total:14669      MisBP:0   MisRate:0.00%    MPKI:0.00
PC:15a62     Total:64317      MisBP:0   MisRate:0.00%    MPKI:0.00
PC:3eb4e     Total:1317      MisBP:0   MisRate:0.00%    MPKI:0.00
PC:84d6c     Total:836725      MisBP:0   MisRate:0.00%    MPKI:0.00
PC:155f6     Total:48552      MisBP:0   MisRate:0.00%    MPKI:0.00
PC:1f818     Total:344      MisBP:0   MisRate:0.00%    MPKI:0.00
PC:162c4     Total:14669      MisBP:0   MisRate:0.00%    MPKI:0.00
PC:167c0     Total:17700      MisBP:0   MisRate:0.00%    MPKI:0.00
PC:32b96     Total:56      MisBP:0   MisRate:0.00%    MPKI:0.00
PC:995e4     Total:12      MisBP:0   MisRate:0.00%    MPKI:0.00
PC:84d6e     Total:836708      MisBP:0   MisRate:0.00%    MPKI:0.00
PC:3f8ae     Total:30      MisBP:0   MisRate:0.00%    MPKI:0.00
PC:167c2     Total:17700      MisBP:0   MisRate:0.00%    MPKI:0.00
PC:41c3a     Total:50      MisBP:0   MisRate:0.00%    MPKI:0.00
PC:18b4e     Total:10439      MisBP:0   MisRate:0.00%    MPKI:0.00
PC:41482     Total:2517      MisBP:0   MisRate:0.00%    MPKI:0.00
PC:47f7e     Total:2093      MisBP:0   MisRate:0.00%    MPKI:0.00
PC:1f6f6     Total:2237      MisBP:0   MisRate:0.00%    MPKI:0.00
PC:3c29c     Total:22356      MisBP:0   MisRate:0.00%    MPKI:0.00
PC:3725a     Total:86527      MisBP:0   MisRate:0.00%    MPKI:0.00
PC:41ce0     Total:3883      MisBP:0   MisRate:0.00%    MPKI:0.00
PC:18bf4     Total:1      MisBP:0   MisRate:0.00%    MPKI:0.00
PC:37260     Total:83330      MisBP:0   MisRate:0.00%    MPKI:0.00
PC:2cc0c     Total:259      MisBP:0   MisRate:0.00%    MPKI:0.00
PC:31620     Total:13      MisBP:0   MisRate:0.00%    MPKI:0.00
PC:3c2ac     Total:26672      MisBP:0   MisRate:0.00%    MPKI:0.00
PC:3726a     Total:83267      MisBP:0   MisRate:0.00%    MPKI:0.00
PC:4148c     Total:2517      MisBP:0   MisRate:0.00%    MPKI:0.00
PC:3f3ac     Total:17      MisBP:0   MisRate:0.00%    MPKI:0.00
PC:162c0     Total:14669      MisBP:0   MisRate:0.00%    MPKI:0.00
PC:15a5c     Total:64325      MisBP:0   MisRate:0.00%    MPKI:0.00
PC:3f3b0     Total:17      MisBP:0   MisRate:0.00%    MPKI:0.00
PC:40e7e     Total:171      MisBP:0   MisRate:0.00%    MPKI:0.00
PC:3d8a4     Total:4183      MisBP:0   MisRate:0.00%    MPKI:0.00
PC:47ac6     Total:1175      MisBP:0   MisRate:0.00%    MPKI:0.00
PC:1f8b6     Total:818      MisBP:0   MisRate:0.00%    MPKI:0.00
PC:3af5c     Total:227      MisBP:0   MisRate:0.00%    MPKI:0.00
PC:31646     Total:1085      MisBP:0   MisRate:0.00%    MPKI:0.00
PC:1cdd0     Total:9610      MisBP:0   MisRate:0.00%    MPKI:0.00
PC:3b436     Total:208      MisBP:0   MisRate:0.00%    MPKI:0.00
PC:3af60     Total:3      MisBP:0   MisRate:0.00%    MPKI:0.00
PC:7b206     Total:8      MisBP:0   MisRate:0.00%    MPKI:0.00
PC:17d92     Total:91510      MisBP:0   MisRate:0.00%    MPKI:0.00
PC:3164a     Total:1085      MisBP:0   MisRate:0.00%    MPKI:0.00
PC:1cdd4     Total:9610      MisBP:0   MisRate:0.00%    MPKI:0.00
PC:3b43a     Total:208      MisBP:0   MisRate:0.00%    MPKI:0.00
PC:3d8aa     Total:8801      MisBP:0   MisRate:0.00%    MPKI:0.00
PC:1569a     Total:213288      MisBP:0   MisRate:0.00%    MPKI:0.00
PC:1f8bc     Total:843      MisBP:0   MisRate:0.00%    MPKI:0.00
PC:17d94     Total:91508      MisBP:0   MisRate:0.00%    MPKI:0.00
PC:3af58     Total:227      MisBP:0   MisRate:0.00%    MPKI:0.00
PC:17d84     Total:92970      MisBP:0   MisRate:0.00%    MPKI:0.00
PC:1cdc6     Total:9610      MisBP:0   MisRate:0.00%    MPKI:0.00
PC:7b1fe     Total:9      MisBP:0   MisRate:0.00%    MPKI:0.00
PC:3d89c     Total:4594      MisBP:0   MisRate:0.00%    MPKI:0.00
PC:3af54     Total:227      MisBP:0   MisRate:0.00%    MPKI:0.00
PC:3163e     Total:1085      MisBP:0   MisRate:0.00%    MPKI:0.00
PC:1cdc8     Total:9610      MisBP:0   MisRate:0.00%    MPKI:0.00
PC:3b42e     Total:104      MisBP:0   MisRate:0.00%    MPKI:0.00
PC:4061c     Total:1179      MisBP:0   MisRate:0.00%    MPKI:0.00
PC:31642     Total:1085      MisBP:0   MisRate:0.00%    MPKI:0.00
PC:1cdcc     Total:9610      MisBP:0   MisRate:0.00%    MPKI:0.00
PC:3b432     Total:208      MisBP:0   MisRate:0.00%    MPKI:0.00
PC:40e78     Total:200      MisBP:0   MisRate:0.00%    MPKI:0.00
PC:17d8c     Total:91511      MisBP:0   MisRate:0.00%    MPKI:0.00
PC:31644     Total:1085      MisBP:0   MisRate:0.00%    MPKI:0.00
PC:1cdce     Total:9610      MisBP:0   MisRate:0.00%    MPKI:0.00
PC:38862     Total:380      MisBP:0   MisRate:0.00%    MPKI:0.00
PC:3b448     Total:158      MisBP:0   MisRate:0.00%    MPKI:0.00
PC:1cdde     Total:8868      MisBP:0   MisRate:0.00%    MPKI:0.00
PC:38872     Total:198      MisBP:0   MisRate:0.00%    MPKI:0.00
PC:beffc530     Total:1      MisBP:0   MisRate:0.00%    MPKI:0.00
PC:7b216     Total:15      MisBP:0   MisRate:0.00%    MPKI:0.00
PC:3d8b4     Total:8843      MisBP:0   MisRate:0.00%    MPKI:0.00
PC:3af6e     Total:224      MisBP:0   MisRate:0.00%    MPKI:0.00
PC:31658     Total:1860      MisBP:0   MisRate:0.00%    MPKI:0.00
PC:1cde2     Total:8868      MisBP:0   MisRate:0.00%    MPKI:0.00
PC:31654     Total:1860      MisBP:0   MisRate:0.00%    MPKI:0.00
PC:38876     Total:254      MisBP:0   MisRate:0.00%    MPKI:0.00
PC:beffc534     Total:1      MisBP:0   MisRate:0.00%    MPKI:0.00
PC:7b21a     Total:5      MisBP:0   MisRate:0.00%    MPKI:0.00
PC:3d8b8     Total:8844      MisBP:0   MisRate:0.00%    MPKI:0.00
PC:47ada     Total:10631      MisBP:0   MisRate:0.00%    MPKI:0.00
PC:4062c     Total:1172      MisBP:0   MisRate:0.00%    MPKI:0.00
PC:3165c     Total:1860      MisBP:0   MisRate:0.00%    MPKI:0.00
PC:1cde6     Total:8863      MisBP:0   MisRate:0.00%    MPKI:0.00
PC:31652     Total:1861      MisBP:0   MisRate:0.00%    MPKI:0.00
PC:1cdd6     Total:8871      MisBP:0   MisRate:0.00%    MPKI:0.00
PC:3af66     Total:3      MisBP:0   MisRate:0.00%    MPKI:0.00
PC:1cdda     Total:8871      MisBP:0   MisRate:0.00%    MPKI:0.00
PC:3b440     Total:158      MisBP:0   MisRate:0.00%    MPKI:0.00
PC:3886e     Total:222      MisBP:0   MisRate:0.00%    MPKI:0.00
PC:1f8c2     Total:621      MisBP:0   MisRate:0.00%    MPKI:0.00
PC:40e86     Total:63      MisBP:0   MisRate:0.00%    MPKI:0.00
PC:40622     Total:1179      MisBP:0   MisRate:0.00%    MPKI:0.00
PC:40e70     Total:316      MisBP:0   MisRate:0.00%    MPKI:0.00
PC:1cddc     Total:8868      MisBP:0   MisRate:0.00%    MPKI:0.00
PC:3b442     Total:316      MisBP:0   MisRate:0.00%    MPKI:0.00
PC:38870     Total:203      MisBP:0   MisRate:0.00%    MPKI:0.00
PC:7b214     Total:15      MisBP:0   MisRate:0.00%    MPKI:0.00
PC:3d8b2     Total:8843      MisBP:0   MisRate:0.00%    MPKI:0.00
PC:3af6a     Total:3      MisBP:0   MisRate:0.00%    MPKI:0.00
PC:17d9c     Total:91414      MisBP:0   MisRate:0.00%    MPKI:0.00
PC:15d64     Total:7060      MisBP:0   MisRate:0.00%    MPKI:0.00
PC:1cdba     Total:14575      MisBP:0   MisRate:0.00%    MPKI:0.00
PC:3b420     Total:142      MisBP:0   MisRate:0.00%    MPKI:0.00
PC:3884e     Total:394      MisBP:0   MisRate:0.00%    MPKI:0.00
PC:31632     Total:1205      MisBP:0   MisRate:0.00%    MPKI:0.00
PC:1cdbc     Total:14574      MisBP:0   MisRate:0.00%    MPKI:0.00
PC:3b422     Total:142      MisBP:0   MisRate:0.00%    MPKI:0.00
PC:6193c     Total:3      MisBP:0   MisRate:0.00%    MPKI:0.00
PC:38f32     Total:191      MisBP:0   MisRate:0.00%    MPKI:0.00
PC:3af46     Total:219      MisBP:0   MisRate:0.00%    MPKI:0.00
PC:3d63a     Total:88      MisBP:0   MisRate:0.00%    MPKI:0.00
PC:4785c     Total:5302      MisBP:0   MisRate:0.00%    MPKI:0.00
PC:38648     Total:37      MisBP:0   MisRate:0.00%    MPKI:0.00
PC:19fe2     Total:1165      MisBP:0   MisRate:0.00%    MPKI:0.00
PC:3e566     Total:196      MisBP:0   MisRate:0.00%    MPKI:0.00
PC:1547a     Total:167721      MisBP:0   MisRate:0.00%    MPKI:0.00
PC:84bf0     Total:693658      MisBP:0   MisRate:0.00%    MPKI:0.00
PC:336ae     Total:156      MisBP:0   MisRate:0.00%    MPKI:0.00
PC:3af40     Total:560      MisBP:0   MisRate:0.00%    MPKI:0.00
PC:1cdaa     Total:15263      MisBP:0   MisRate:0.00%    MPKI:0.00
PC:3b410     Total:144      MisBP:0   MisRate:0.00%    MPKI:0.00
PC:1cdae     Total:15262      MisBP:0   MisRate:0.00%    MPKI:0.00
PC:3b414     Total:144      MisBP:0   MisRate:0.00%    MPKI:0.00
PC:38842     Total:802      MisBP:0   MisRate:0.00%    MPKI:0.00
PC:1f896     Total:569      MisBP:0   MisRate:0.00%    MPKI:0.00
PC:1cdb2     Total:15262      MisBP:0   MisRate:0.00%    MPKI:0.00
PC:3b418     Total:142      MisBP:0   MisRate:0.00%    MPKI:0.00
PC:47f24     Total:3316      MisBP:0   MisRate:0.00%    MPKI:0.00
PC:3162a     Total:13      MisBP:0   MisRate:0.00%    MPKI:0.00
PC:1cdb4     Total:15261      MisBP:0   MisRate:0.00%    MPKI:0.00
PC:61934     Total:2      MisBP:0   MisRate:0.00%    MPKI:0.00
PC:38848     Total:807      MisBP:0   MisRate:0.00%    MPKI:0.00
PC:3af42     Total:560      MisBP:0   MisRate:0.00%    MPKI:0.00
PC:3162c     Total:13      MisBP:0   MisRate:0.00%    MPKI:0.00
PC:1cdb6     Total:14576      MisBP:0   MisRate:0.00%    MPKI:0.00
PC:3b41c     Total:142      MisBP:0   MisRate:0.00%    MPKI:0.00
PC:3b426     Total:142      MisBP:0   MisRate:0.00%    MPKI:0.00
PC:99aa2     Total:4      MisBP:0   MisRate:0.00%    MPKI:0.00
PC:478ca     Total:404      MisBP:0   MisRate:0.00%    MPKI:0.00
PC:3d6ac     Total:46      MisBP:0   MisRate:0.00%    MPKI:0.00
PC:33058     Total:12      MisBP:0   MisRate:0.00%    MPKI:0.00
PC:99aa6     Total:66      MisBP:0   MisRate:0.00%    MPKI:0.00
PC:478ce     Total:404      MisBP:0   MisRate:0.00%    MPKI:0.00
PC:31636     Total:1205      MisBP:0   MisRate:0.00%    MPKI:0.00
PC:1cdc0     Total:9617      MisBP:0   MisRate:0.00%    MPKI:0.00
PC:33054     Total:12      MisBP:0   MisRate:0.00%    MPKI:0.00
PC:38854     Total:249      MisBP:0   MisRate:0.00%    MPKI:0.00
PC:3af50     Total:227      MisBP:0   MisRate:0.00%    MPKI:0.00
PC:3163a     Total:1204      MisBP:0   MisRate:0.00%    MPKI:0.00
PC:1cdc4     Total:9617      MisBP:0   MisRate:0.00%    MPKI:0.00
PC:3b42a     Total:142      MisBP:0   MisRate:0.00%    MPKI:0.00
PC:38858     Total:249      MisBP:0   MisRate:0.00%    MPKI:0.00
PC:1568a     Total:44130      MisBP:0   MisRate:0.00%    MPKI:0.00
PC:1f8ac     Total:526      MisBP:0   MisRate:0.00%    MPKI:0.00
PC:99a9a     Total:59      MisBP:0   MisRate:0.00%    MPKI:0.00
PC:1f69c     Total:172      MisBP:0   MisRate:0.00%    MPKI:0.00
PC:38658     Total:36      MisBP:0   MisRate:0.00%    MPKI:0.00
PC:3e576     Total:196      MisBP:0   MisRate:0.00%    MPKI:0.00
PC:1548a     Total:155591      MisBP:0   MisRate:0.00%    MPKI:0.00
PC:336be     Total:156      MisBP:0   MisRate:0.00%    MPKI:0.00
PC:47f34     Total:2488      MisBP:0   MisRate:0.00%    MPKI:0.00
PC:1f6ac     Total:172      MisBP:0   MisRate:0.00%    MPKI:0.00
PC:3865e     Total:36      MisBP:0   MisRate:0.00%    MPKI:0.00
PC:32aba     Total:11      MisBP:0   MisRate:0.00%    MPKI:0.00
PC:478c2     Total:408      MisBP:0   MisRate:0.00%    MPKI:0.00
PC:3e584     Total:1      MisBP:0   MisRate:0.00%    MPKI:0.00
PC:15498     Total:145727      MisBP:0   MisRate:0.00%    MPKI:0.00
PC:336cc     Total:104      MisBP:0   MisRate:0.00%    MPKI:0.00
PC:47f42     Total:2144      MisBP:0   MisRate:0.00%    MPKI:0.00
PC:1f6ba     Total:172      MisBP:0   MisRate:0.00%    MPKI:0.00
PC:3d6a8     Total:46      MisBP:0   MisRate:0.00%    MPKI:0.00
PC:3f3ec     Total:19      MisBP:0   MisRate:0.00%    MPKI:0.00
PC:15c44     Total:4801      MisBP:0   MisRate:0.00%    MPKI:0.00
PC:3ed30     Total:9112      MisBP:0   MisRate:0.00%    MPKI:0.00
PC:7cefa     Total:6      MisBP:0   MisRate:0.00%    MPKI:0.00
PC:164ac     Total:14001      MisBP:0   MisRate:0.00%    MPKI:0.00
PC:3ed34     Total:9112      MisBP:0   MisRate:0.00%    MPKI:0.00
PC:1b8c2     Total:1070      MisBP:0   MisRate:0.00%    MPKI:0.00
PC:3f96c     Total:111      MisBP:0   MisRate:0.00%    MPKI:0.00
PC:16880     Total:35      MisBP:0   MisRate:0.00%    MPKI:0.00
PC:164a8     Total:14102      MisBP:0   MisRate:0.00%    MPKI:0.00
PC:16300     Total:16847      MisBP:0   MisRate:0.00%    MPKI:0.00
PC:41baa     Total:81      MisBP:0   MisRate:0.00%    MPKI:0.00
PC:18abe     Total:35538      MisBP:0   MisRate:0.00%    MPKI:0.00
PC:3eb8a     Total:183      MisBP:0   MisRate:0.00%    MPKI:0.00
PC:2d336     Total:9      MisBP:0   MisRate:0.00%    MPKI:0.00
PC:41bac     Total:80      MisBP:0   MisRate:0.00%    MPKI:0.00
PC:18ac0     Total:35526      MisBP:0   MisRate:0.00%    MPKI:0.00
PC:3f3f2     Total:21      MisBP:0   MisRate:0.00%    MPKI:0.00
PC:1b4e0     Total:4470      MisBP:0   MisRate:0.00%    MPKI:0.00
PC:39666     Total:33      MisBP:0   MisRate:0.00%    MPKI:0.00
PC:7cee6     Total:6      MisBP:0   MisRate:0.00%    MPKI:0.00
PC:16498     Total:14116      MisBP:0   MisRate:0.00%    MPKI:0.00
PC:15c34     Total:5239      MisBP:0   MisRate:0.00%    MPKI:0.00
PC:3ed20     Total:11185      MisBP:0   MisRate:0.00%    MPKI:0.00
PC:1649c     Total:14115      MisBP:0   MisRate:0.00%    MPKI:0.00
PC:15c38     Total:5239      MisBP:0   MisRate:0.00%    MPKI:0.00
PC:3ed24     Total:11120      MisBP:0   MisRate:0.00%    MPKI:0.00
PC:16306     Total:16878      MisBP:0   MisRate:0.00%    MPKI:0.00
PC:7ceec     Total:6      MisBP:0   MisRate:0.00%    MPKI:0.00
PC:1649e     Total:14115      MisBP:0   MisRate:0.00%    MPKI:0.00
PC:7cef0     Total:6      MisBP:0   MisRate:0.00%    MPKI:0.00
PC:164a2     Total:14107      MisBP:0   MisRate:0.00%    MPKI:0.00
PC:1b4e8     Total:4470      MisBP:0   MisRate:0.00%    MPKI:0.00
PC:7cef4     Total:6      MisBP:0   MisRate:0.00%    MPKI:0.00
PC:164a6     Total:14102      MisBP:0   MisRate:0.00%    MPKI:0.00
PC:7cef6     Total:6      MisBP:0   MisRate:0.00%    MPKI:0.00
PC:1631a     Total:16382      MisBP:0   MisRate:0.00%    MPKI:0.00
PC:18ad0     Total:35526      MisBP:0   MisRate:0.00%    MPKI:0.00
PC:16316     Total:16382      MisBP:0   MisRate:0.00%    MPKI:0.00
PC:41bc0     Total:72      MisBP:0   MisRate:0.00%    MPKI:0.00
PC:18ad4     Total:35523      MisBP:0   MisRate:0.00%    MPKI:0.00
PC:394e8     Total:88      MisBP:0   MisRate:0.00%    MPKI:0.00
PC:2f6f8     Total:90      MisBP:0   MisRate:0.00%    MPKI:0.00
PC:1ae82     Total:29133      MisBP:0   MisRate:0.00%    MPKI:0.00
PC:3f406     Total:2      MisBP:0   MisRate:0.00%    MPKI:0.00
PC:16312     Total:17153      MisBP:0   MisRate:0.00%    MPKI:0.00
PC:41bc4     Total:72      MisBP:0   MisRate:0.00%    MPKI:0.00
PC:18ad8     Total:35523      MisBP:0   MisRate:0.00%    MPKI:0.00
PC:394ec     Total:88      MisBP:0   MisRate:0.00%    MPKI:0.00
PC:3f40a     Total:2      MisBP:0   MisRate:0.00%    MPKI:0.00
PC:1631e     Total:16304      MisBP:0   MisRate:0.00%    MPKI:0.00
PC:41bc8     Total:72      MisBP:0   MisRate:0.00%    MPKI:0.00
PC:18adc     Total:35523      MisBP:0   MisRate:0.00%    MPKI:0.00
PC:18278     Total:12      MisBP:0   MisRate:0.00%    MPKI:0.00
PC:3f3f8     Total:10      MisBP:0   MisRate:0.00%    MPKI:0.00
PC:394d6     Total:89      MisBP:0   MisRate:0.00%    MPKI:0.00
PC:2f6e6     Total:92      MisBP:0   MisRate:0.00%    MPKI:0.00
PC:1ae70     Total:15467      MisBP:0   MisRate:0.00%    MPKI:0.00
PC:16308     Total:16942      MisBP:0   MisRate:0.00%    MPKI:0.00
PC:3eb90     Total:183      MisBP:0   MisRate:0.00%    MPKI:0.00
PC:18ac6     Total:35526      MisBP:0   MisRate:0.00%    MPKI:0.00
PC:1630a     Total:16942      MisBP:0   MisRate:0.00%    MPKI:0.00
PC:394da     Total:88      MisBP:0   MisRate:0.00%    MPKI:0.00
PC:3ed1e     Total:11185      MisBP:0   MisRate:0.00%    MPKI:0.00
PC:1630c     Total:16942      MisBP:0   MisRate:0.00%    MPKI:0.00
PC:15aa8     Total:43347      MisBP:0   MisRate:0.00%    MPKI:0.00
PC:3eb94     Total:183      MisBP:0   MisRate:0.00%    MPKI:0.00
PC:18aca     Total:35526      MisBP:0   MisRate:0.00%    MPKI:0.00
PC:3f3fa     Total:10      MisBP:0   MisRate:0.00%    MPKI:0.00
PC:41bb8     Total:80      MisBP:0   MisRate:0.00%    MPKI:0.00
PC:18acc     Total:35526      MisBP:0   MisRate:0.00%    MPKI:0.00
PC:3f3fe     Total:10      MisBP:0   MisRate:0.00%    MPKI:0.00
PC:15d5a     Total:5336      MisBP:0   MisRate:0.00%    MPKI:0.00
PC:2d88e     Total:1080      MisBP:0   MisRate:0.00%    MPKI:0.00
PC:3c6c0     Total:67171      MisBP:0   MisRate:0.00%    MPKI:0.00
PC:3768a     Total:148      MisBP:0   MisRate:0.00%    MPKI:0.00
PC:2d89a     Total:1090      MisBP:0   MisRate:0.00%    MPKI:0.00
PC:19024     Total:7709      MisBP:0   MisRate:0.00%    MPKI:0.00
PC:3c6cc     Total:67171      MisBP:0   MisRate:0.00%    MPKI:0.00
PC:3ee36     Total:294      MisBP:0   MisRate:0.00%    MPKI:0.00
PC:15d4a     Total:25894      MisBP:0   MisRate:0.00%    MPKI:0.00
PC:42104     Total:25      MisBP:0   MisRate:0.00%    MPKI:0.00
PC:38f2e     Total:193      MisBP:0   MisRate:0.00%    MPKI:0.00
PC:39b26     Total:85      MisBP:0   MisRate:0.00%    MPKI:0.00
PC:3964c     Total:199      MisBP:0   MisRate:0.00%    MPKI:0.00
PC:1647e     Total:17181      MisBP:0   MisRate:0.00%    MPKI:0.00
PC:3ed06     Total:11102      MisBP:0   MisRate:0.00%    MPKI:0.00
PC:1b4c4     Total:34346      MisBP:0   MisRate:0.00%    MPKI:0.00
PC:39b2a     Total:58      MisBP:0   MisRate:0.00%    MPKI:0.00
PC:39650     Total:119      MisBP:0   MisRate:0.00%    MPKI:0.00
PC:3c688     Total:64211      MisBP:0   MisRate:0.00%    MPKI:0.00
PC:1b980     Total:703      MisBP:0   MisRate:0.00%    MPKI:0.00
PC:3fa2a     Total:1302      MisBP:0   MisRate:0.00%    MPKI:0.00
PC:1693e     Total:9961      MisBP:0   MisRate:0.00%    MPKI:0.00
PC:3c67a     Total:64616      MisBP:0   MisRate:0.00%    MPKI:0.00
PC:2dd26     Total:311      MisBP:0   MisRate:0.00%    MPKI:0.00
PC:37b16     Total:453      MisBP:0   MisRate:0.00%    MPKI:0.00
PC:3c67e     Total:64616      MisBP:0   MisRate:0.00%    MPKI:0.00
PC:194ba     Total:587      MisBP:0   MisRate:0.00%    MPKI:0.00
PC:7ced0     Total:36      MisBP:0   MisRate:0.00%    MPKI:0.00
PC:3c698     Total:30389      MisBP:0   MisRate:0.00%    MPKI:0.00
PC:3c6a8     Total:72155      MisBP:0   MisRate:0.00%    MPKI:0.00
PC:3c6b0     Total:71593      MisBP:0   MisRate:0.00%    MPKI:0.00
PC:37678     Total:144      MisBP:0   MisRate:0.00%    MPKI:0.00
PC:420fe     Total:25      MisBP:0   MisRate:0.00%    MPKI:0.00
PC:19012     Total:60749      MisBP:0   MisRate:0.00%    MPKI:0.00
PC:3c6ba     Total:71592      MisBP:0   MisRate:0.00%    MPKI:0.00
PC:3767e     Total:144      MisBP:0   MisRate:0.00%    MPKI:0.00
PC:16490     Total:16390      MisBP:0   MisRate:0.00%    MPKI:0.00
PC:3ed12     Total:11185      MisBP:0   MisRate:0.00%    MPKI:0.00
PC:3965c     Total:96      MisBP:0   MisRate:0.00%    MPKI:0.00
PC:7cedc     Total:6      MisBP:0   MisRate:0.00%    MPKI:0.00
PC:1648e     Total:16390      MisBP:0   MisRate:0.00%    MPKI:0.00
PC:15c2a     Total:5537      MisBP:0   MisRate:0.00%    MPKI:0.00
PC:3ed16     Total:11185      MisBP:0   MisRate:0.00%    MPKI:0.00
PC:39b38     Total:32      MisBP:0   MisRate:0.00%    MPKI:0.00
PC:3965e     Total:96      MisBP:0   MisRate:0.00%    MPKI:0.00
PC:15c26     Total:5537      MisBP:0   MisRate:0.00%    MPKI:0.00
PC:3ed18     Total:11185      MisBP:0   MisRate:0.00%    MPKI:0.00
PC:7cee2     Total:6      MisBP:0   MisRate:0.00%    MPKI:0.00
PC:16494     Total:14123      MisBP:0   MisRate:0.00%    MPKI:0.00
PC:3ed1c     Total:11185      MisBP:0   MisRate:0.00%    MPKI:0.00
PC:39b3e     Total:32      MisBP:0   MisRate:0.00%    MPKI:0.00
PC:39664     Total:33      MisBP:0   MisRate:0.00%    MPKI:0.00
PC:16496     Total:14116      MisBP:0   MisRate:0.00%    MPKI:0.00
PC:15c32     Total:5537      MisBP:0   MisRate:0.00%    MPKI:0.00
PC:39b30     Total:57      MisBP:0   MisRate:0.00%    MPKI:0.00
PC:16482     Total:17181      MisBP:0   MisRate:0.00%    MPKI:0.00
PC:3ed0a     Total:11272      MisBP:0   MisRate:0.00%    MPKI:0.00
PC:39b2c     Total:57      MisBP:0   MisRate:0.00%    MPKI:0.00
PC:39652     Total:119      MisBP:0   MisRate:0.00%    MPKI:0.00
PC:7ced2     Total:6      MisBP:0   MisRate:0.00%    MPKI:0.00
PC:16484     Total:17181      MisBP:0   MisRate:0.00%    MPKI:0.00
PC:15c20     Total:5537      MisBP:0   MisRate:0.00%    MPKI:0.00
PC:3ed0c     Total:11273      MisBP:0   MisRate:0.00%    MPKI:0.00
PC:2caee     Total:54515      MisBP:0   MisRate:0.00%    MPKI:0.00
PC:39656     Total:96      MisBP:0   MisRate:0.00%    MPKI:0.00
PC:7ced6     Total:6      MisBP:0   MisRate:0.00%    MPKI:0.00
PC:16488     Total:17181      MisBP:0   MisRate:0.00%    MPKI:0.00
PC:15c24     Total:5537      MisBP:0   MisRate:0.00%    MPKI:0.00
PC:3ed10     Total:11273      MisBP:0   MisRate:0.00%    MPKI:0.00
PC:39b32     Total:57      MisBP:0   MisRate:0.00%    MPKI:0.00
PC:39658     Total:96      MisBP:0   MisRate:0.00%    MPKI:0.00
PC:7cdda     Total:12      MisBP:0   MisRate:0.00%    MPKI:0.00
PC:1c27c     Total:40376      MisBP:0   MisRate:0.00%    MPKI:0.00
PC:1c28a     Total:34370      MisBP:0   MisRate:0.00%    MPKI:0.00
PC:9711c     Total:9      MisBP:0   MisRate:0.00%    MPKI:0.00
PC:306ce     Total:22633      MisBP:0   MisRate:0.00%    MPKI:0.00
PC:7cdd6     Total:12      MisBP:0   MisRate:0.00%    MPKI:0.00
PC:3f474     Total:33496      MisBP:0   MisRate:0.00%    MPKI:0.00
PC:3fcd8     Total:188      MisBP:0   MisRate:0.00%    MPKI:0.00
PC:16bec     Total:10008      MisBP:0   MisRate:0.00%    MPKI:0.00
PC:306bc     Total:129832      MisBP:0   MisRate:0.00%    MPKI:0.00
PC:3f478     Total:33496      MisBP:0   MisRate:0.00%    MPKI:0.00
PC:16bf0     Total:19555      MisBP:0   MisRate:0.00%    MPKI:0.00
PC:7a1bc     Total:16      MisBP:0   MisRate:0.00%    MPKI:0.00
PC:3c85a     Total:10043      MisBP:0   MisRate:0.00%    MPKI:0.00
PC:7a1ce     Total:2      MisBP:0   MisRate:0.00%    MPKI:0.00
PC:16114     Total:40858      MisBP:0   MisRate:0.00%    MPKI:0.00
PC:158b0     Total:24021      MisBP:0   MisRate:0.00%    MPKI:0.00
PC:3e99c     Total:5058      MisBP:0   MisRate:0.00%    MPKI:0.00
PC:1ba32     Total:56      MisBP:0   MisRate:0.00%    MPKI:0.00
PC:4138e     Total:7265      MisBP:0   MisRate:0.00%    MPKI:0.00
PC:4e5ef4     Total:1      MisBP:0   MisRate:0.00%    MPKI:0.00
PC:1634c     Total:14881      MisBP:0   MisRate:0.00%    MPKI:0.00
PC:1634e     Total:14880      MisBP:0   MisRate:0.00%    MPKI:0.00
PC:15aea     Total:30227      MisBP:0   MisRate:0.00%    MPKI:0.00
PC:3ebd6     Total:4711      MisBP:0   MisRate:0.00%    MPKI:0.00
PC:16352     Total:14880      MisBP:0   MisRate:0.00%    MPKI:0.00
PC:3ebda     Total:17640      MisBP:0   MisRate:0.00%    MPKI:0.00
PC:16118     Total:40844      MisBP:0   MisRate:0.00%    MPKI:0.00
PC:2fe76     Total:1501      MisBP:0   MisRate:0.00%    MPKI:0.00
PC:1c26a     Total:40389      MisBP:0   MisRate:0.00%    MPKI:0.00
PC:1c26e     Total:40383      MisBP:0   MisRate:0.00%    MPKI:0.00
PC:1c274     Total:40376      MisBP:0   MisRate:0.00%    MPKI:0.00
PC:97106     Total:10      MisBP:0   MisRate:0.00%    MPKI:0.00
PC:306b8     Total:129888      MisBP:0   MisRate:0.00%    MPKI:0.00
PC:1c278     Total:40376      MisBP:0   MisRate:0.00%    MPKI:0.00
PC:9710a     Total:10      MisBP:0   MisRate:0.00%    MPKI:0.00
PC:158d2     Total:35682      MisBP:0   MisRate:0.00%    MPKI:0.00
PC:16130     Total:37772      MisBP:0   MisRate:0.00%    MPKI:0.00
PC:158cc     Total:35682      MisBP:0   MisRate:0.00%    MPKI:0.00
PC:3e9b8     Total:27574      MisBP:0   MisRate:0.00%    MPKI:0.00
PC:3f220     Total:873      MisBP:0   MisRate:0.00%    MPKI:0.00
PC:16134     Total:38160      MisBP:0   MisRate:0.00%    MPKI:0.00
PC:3e9bc     Total:2746      MisBP:0   MisRate:0.00%    MPKI:0.00
PC:3f222     Total:873      MisBP:0   MisRate:0.00%    MPKI:0.00
PC:16136     Total:38132      MisBP:0   MisRate:0.00%    MPKI:0.00
PC:3f21c     Total:703      MisBP:0   MisRate:0.00%    MPKI:0.00
PC:3e9be     Total:2746      MisBP:0   MisRate:0.00%    MPKI:0.00
PC:3e9c0     Total:2678      MisBP:0   MisRate:0.00%    MPKI:0.00
PC:3f228     Total:873      MisBP:0   MisRate:0.00%    MPKI:0.00
PC:1613c     Total:25694      MisBP:0   MisRate:0.00%    MPKI:0.00
PC:158d8     Total:35682      MisBP:0   MisRate:0.00%    MPKI:0.00
PC:3e9c4     Total:2678      MisBP:0   MisRate:0.00%    MPKI:0.00
PC:32a74     Total:100      MisBP:0   MisRate:0.00%    MPKI:0.00
PC:84c4c     Total:608      MisBP:0   MisRate:0.00%    MPKI:0.00
PC:3f210     Total:859      MisBP:0   MisRate:0.00%    MPKI:0.00
PC:3e9a0     Total:5058      MisBP:0   MisRate:0.00%    MPKI:0.00
PC:1611c     Total:37812      MisBP:0   MisRate:0.00%    MPKI:0.00
PC:158b8     Total:68469      MisBP:0   MisRate:0.00%    MPKI:0.00
PC:3e9a4     Total:5058      MisBP:0   MisRate:0.00%    MPKI:0.00
PC:3f20c     Total:859      MisBP:0   MisRate:0.00%    MPKI:0.00
PC:16120     Total:37787      MisBP:0   MisRate:0.00%    MPKI:0.00
PC:158bc     Total:42758      MisBP:0   MisRate:0.00%    MPKI:0.00
PC:3e9a8     Total:5058      MisBP:0   MisRate:0.00%    MPKI:0.00
PC:182a2     Total:1      MisBP:0   MisRate:0.00%    MPKI:0.00
PC:16124     Total:37776      MisBP:0   MisRate:0.00%    MPKI:0.00
PC:3f214     Total:784      MisBP:0   MisRate:0.00%    MPKI:0.00
PC:16128     Total:37775      MisBP:0   MisRate:0.00%    MPKI:0.00
PC:158c4     Total:74732      MisBP:0   MisRate:0.00%    MPKI:0.00
PC:1612c     Total:37774      MisBP:0   MisRate:0.00%    MPKI:0.00
PC:158c8     Total:74732      MisBP:0   MisRate:0.00%    MPKI:0.00
PC:3e9b4     Total:1      MisBP:0   MisRate:0.00%    MPKI:0.00
PC:18286     Total:2      MisBP:0   MisRate:0.00%    MPKI:0.00
PC:4136e     Total:1457      MisBP:0   MisRate:0.00%    MPKI:0.00
PC:3f416     Total:2      MisBP:0   MisRate:0.00%    MPKI:0.00
PC:1632a     Total:16302      MisBP:0   MisRate:0.00%    MPKI:0.00
PC:4e5ed4     Total:1      MisBP:0   MisRate:0.00%    MPKI:0.00
PC:3f418     Total:2      MisBP:0   MisRate:0.00%    MPKI:0.00
PC:1632c     Total:16324      MisBP:0   MisRate:0.00%    MPKI:0.00
PC:3ebb4     Total:174      MisBP:0   MisRate:0.00%    MPKI:0.00
PC:18aea     Total:35519      MisBP:0   MisRate:0.00%    MPKI:0.00
PC:2caf8     Total:11864      MisBP:0   MisRate:0.00%    MPKI:0.00
PC:41372     Total:1457      MisBP:0   MisRate:0.00%    MPKI:0.00
PC:394fc     Total:525      MisBP:0   MisRate:0.00%    MPKI:0.00
PC:1632e     Total:15970      MisBP:0   MisRate:0.00%    MPKI:0.00
PC:3f41e     Total:2      MisBP:0   MisRate:0.00%    MPKI:0.00
PC:16332     Total:15969      MisBP:0   MisRate:0.00%    MPKI:0.00
PC:15ace     Total:33029      MisBP:0   MisRate:0.00%    MPKI:0.00
PC:3ebba     Total:156      MisBP:0   MisRate:0.00%    MPKI:0.00
PC:3f422     Total:2      MisBP:0   MisRate:0.00%    MPKI:0.00
PC:3f410     Total:2      MisBP:0   MisRate:0.00%    MPKI:0.00
PC:41364     Total:4222      MisBP:0   MisRate:0.00%    MPKI:0.00
PC:394f0     Total:525      MisBP:0   MisRate:0.00%    MPKI:0.00
PC:3f40e     Total:2      MisBP:0   MisRate:0.00%    MPKI:0.00
PC:16322     Total:16304      MisBP:0   MisRate:0.00%    MPKI:0.00
PC:18ae0     Total:35523      MisBP:0   MisRate:0.00%    MPKI:0.00
PC:394f2     Total:525      MisBP:0   MisRate:0.00%    MPKI:0.00
PC:2f702     Total:2      MisBP:0   MisRate:0.00%    MPKI:0.00
PC:1ae8c     Total:29133      MisBP:0   MisRate:0.00%    MPKI:0.00
PC:16336     Total:15920      MisBP:0   MisRate:0.00%    MPKI:0.00
PC:16324     Total:16304      MisBP:0   MisRate:0.00%    MPKI:0.00
PC:3ebac     Total:174      MisBP:0   MisRate:0.00%    MPKI:0.00
PC:16328     Total:16304      MisBP:0   MisRate:0.00%    MPKI:0.00
PC:15ac4     Total:31908      MisBP:0   MisRate:0.00%    MPKI:0.00
PC:3ebb0     Total:174      MisBP:0   MisRate:0.00%    MPKI:0.00
PC:41bd2     Total:50      MisBP:0   MisRate:0.00%    MPKI:0.00
PC:18ae6     Total:35523      MisBP:0   MisRate:0.00%    MPKI:0.00
PC:18282     Total:2      MisBP:0   MisRate:0.00%    MPKI:0.00
PC:18b00     Total:35462      MisBP:0   MisRate:0.00%    MPKI:0.00
PC:41be8     Total:1132      MisBP:0   MisRate:0.00%    MPKI:0.00
PC:18afc     Total:35519      MisBP:0   MisRate:0.00%    MPKI:0.00
PC:18298     Total:1      MisBP:0   MisRate:0.00%    MPKI:0.00
PC:2cb0e     Total:4542      MisBP:0   MisRate:0.00%    MPKI:0.00
PC:16342     Total:14881      MisBP:0   MisRate:0.00%    MPKI:0.00
PC:15ade     Total:31396      MisBP:0   MisRate:0.00%    MPKI:0.00
PC:3ebca     Total:4712      MisBP:0   MisRate:0.00%    MPKI:0.00
PC:41bec     Total:1129      MisBP:0   MisRate:0.00%    MPKI:0.00
PC:1633e     Total:14881      MisBP:0   MisRate:0.00%    MPKI:0.00
PC:1829c     Total:1      MisBP:0   MisRate:0.00%    MPKI:0.00
PC:2cb12     Total:4542      MisBP:0   MisRate:0.00%    MPKI:0.00
PC:41388     Total:7262      MisBP:0   MisRate:0.00%    MPKI:0.00
PC:16346     Total:14881      MisBP:0   MisRate:0.00%    MPKI:0.00
PC:15ae2     Total:31390      MisBP:0   MisRate:0.00%    MPKI:0.00
PC:3ebce     Total:4712      MisBP:0   MisRate:0.00%    MPKI:0.00
PC:4e5ef0     Total:1      MisBP:0   MisRate:0.00%    MPKI:0.00
PC:16348     Total:14881      MisBP:0   MisRate:0.00%    MPKI:0.00
PC:4e5ee4     Total:1      MisBP:0   MisRate:0.00%    MPKI:0.00
PC:3ebbe     Total:116      MisBP:0   MisRate:0.00%    MPKI:0.00
PC:39506     Total:255      MisBP:0   MisRate:0.00%    MPKI:0.00
PC:4e5ee0     Total:1      MisBP:0   MisRate:0.00%    MPKI:0.00
PC:3f424     Total:2      MisBP:0   MisRate:0.00%    MPKI:0.00
PC:16338     Total:15915      MisBP:0   MisRate:0.00%    MPKI:0.00
PC:18af6     Total:35519      MisBP:0   MisRate:0.00%    MPKI:0.00
PC:18292     Total:2      MisBP:0   MisRate:0.00%    MPKI:0.00
PC:4137e     Total:1321      MisBP:0   MisRate:0.00%    MPKI:0.00
PC:190fc     Total:7054      MisBP:0   MisRate:0.00%    MPKI:0.00
PC:3f428     Total:2      MisBP:0   MisRate:0.00%    MPKI:0.00
PC:1633c     Total:15922      MisBP:0   MisRate:0.00%    MPKI:0.00
PC:15ad8     Total:30605      MisBP:0   MisRate:0.00%    MPKI:0.00
PC:3ebc4     Total:4712      MisBP:0   MisRate:0.00%    MPKI:0.00
PC:18afa     Total:35519      MisBP:0   MisRate:0.00%    MPKI:0.00
PC:18296     Total:1      MisBP:0   MisRate:0.00%    MPKI:0.00
PC:41382     Total:1321      MisBP:0   MisRate:0.00%    MPKI:0.00
PC:29166     Total:154      MisBP:0   MisRate:0.00%    MPKI:0.00
PC:7b300     Total:896      MisBP:0   MisRate:0.00%    MPKI:0.00
PC:3d99e     Total:18      MisBP:0   MisRate:0.00%    MPKI:0.00
PC:387c0     Total:67      MisBP:0   MisRate:0.00%    MPKI:0.00
PC:47a2a     Total:1638      MisBP:0   MisRate:0.00%    MPKI:0.00
PC:387e0     Total:57      MisBP:0   MisRate:0.00%    MPKI:0.00
PC:387ea     Total:60      MisBP:0   MisRate:0.00%    MPKI:0.00
PC:3d844     Total:6896      MisBP:0   MisRate:0.00%    MPKI:0.00
PC:47a66     Total:2286      MisBP:0   MisRate:0.00%    MPKI:0.00
PC:29128     Total:2      MisBP:0   MisRate:0.00%    MPKI:0.00
PC:3899e     Total:430      MisBP:0   MisRate:0.00%    MPKI:0.00
PC:7b342     Total:3      MisBP:0   MisRate:0.00%    MPKI:0.00
PC:2916a     Total:154      MisBP:0   MisRate:0.00%    MPKI:0.00
PC:3d9e0     Total:6224      MisBP:0   MisRate:0.00%    MPKI:0.00
PC:3338c     Total:4      MisBP:0   MisRate:0.00%    MPKI:0.00
PC:47c02     Total:409      MisBP:0   MisRate:0.00%    MPKI:0.00
PC:38fce     Total:2308      MisBP:0   MisRate:0.00%    MPKI:0.00
PC:3eeec     Total:204      MisBP:0   MisRate:0.00%    MPKI:0.00
PC:3d7e2     Total:182      MisBP:0   MisRate:0.00%    MPKI:0.00
PC:37baa     Total:363      MisBP:0   MisRate:0.00%    MPKI:0.00
PC:3723a     Total:42821      MisBP:0   MisRate:0.00%    MPKI:0.00
PC:41cc0     Total:5051      MisBP:0   MisRate:0.00%    MPKI:0.00
PC:18bd4     Total:510789      MisBP:0   MisRate:0.00%    MPKI:0.00
PC:3d7a8     Total:207      MisBP:0   MisRate:0.00%    MPKI:0.00
PC:61866     Total:25      MisBP:0   MisRate:0.00%    MPKI:0.00
PC:3877a     Total:261      MisBP:0   MisRate:0.00%    MPKI:0.00
PC:387a0     Total:103      MisBP:0   MisRate:0.00%    MPKI:0.00
PC:15e00     Total:24934      MisBP:0   MisRate:0.00%    MPKI:0.00
PC:99bdc     Total:2      MisBP:0   MisRate:0.00%    MPKI:0.00
PC:47a04     Total:1186      MisBP:0   MisRate:0.00%    MPKI:0.00
PC:618a0     Total:9      MisBP:0   MisRate:0.00%    MPKI:0.00
PC:387b4     Total:97      MisBP:0   MisRate:0.00%    MPKI:0.00
PC:3d7f6     Total:4161      MisBP:0   MisRate:0.00%    MPKI:0.00
PC:99bf0     Total:62      MisBP:0   MisRate:0.00%    MPKI:0.00
PC:47a18     Total:1126      MisBP:0   MisRate:0.00%    MPKI:0.00
PC:387bc     Total:97      MisBP:0   MisRate:0.00%    MPKI:0.00
PC:92122     Total:18182      MisBP:0   MisRate:0.00%    MPKI:0.00
PC:389a4     Total:430      MisBP:0   MisRate:0.00%    MPKI:0.00
PC:7b348     Total:4      MisBP:0   MisRate:0.00%    MPKI:0.00
PC:29170     Total:154      MisBP:0   MisRate:0.00%    MPKI:0.00
PC:3d9e6     Total:2      MisBP:0   MisRate:0.00%    MPKI:0.00
PC:33392     Total:4      MisBP:0   MisRate:0.00%    MPKI:0.00
PC:47c08     Total:409      MisBP:0   MisRate:0.00%    MPKI:0.00
PC:19af2     Total:288      MisBP:0   MisRate:0.00%    MPKI:0.00
PC:3ff4a     Total:9475      MisBP:0   MisRate:0.00%    MPKI:0.00
PC:15e04     Total:24934      MisBP:0   MisRate:0.00%    MPKI:0.00
PC:389a6     Total:430      MisBP:0   MisRate:0.00%    MPKI:0.00
PC:29172     Total:154      MisBP:0   MisRate:0.00%    MPKI:0.00
PC:3d9e8     Total:721      MisBP:0   MisRate:0.00%    MPKI:0.00
PC:16e60     Total:676      MisBP:0   MisRate:0.00%    MPKI:0.00
PC:3ff4c     Total:9475      MisBP:0   MisRate:0.00%    MPKI:0.00
PC:92124     Total:9091      MisBP:0   MisRate:0.00%    MPKI:0.00
PC:17f28     Total:22583      MisBP:0   MisRate:0.00%    MPKI:0.00
PC:41014     Total:6030      MisBP:0   MisRate:0.00%    MPKI:0.00
PC:47c06     Total:409      MisBP:0   MisRate:0.00%    MPKI:0.00
PC:7b344     Total:3      MisBP:0   MisRate:0.00%    MPKI:0.00
PC:2916c     Total:154      MisBP:0   MisRate:0.00%    MPKI:0.00
PC:3d9e2     Total:2      MisBP:0   MisRate:0.00%    MPKI:0.00
PC:3338e     Total:4      MisBP:0   MisRate:0.00%    MPKI:0.00
PC:47c04     Total:409      MisBP:0   MisRate:0.00%    MPKI:0.00
PC:389a2     Total:430      MisBP:0   MisRate:0.00%    MPKI:0.00
PC:2916e     Total:154      MisBP:0   MisRate:0.00%    MPKI:0.00
PC:3d9e4     Total:2      MisBP:0   MisRate:0.00%    MPKI:0.00
PC:60c96     Total:7      MisBP:0   MisRate:0.00%    MPKI:0.00
PC:16e5c     Total:676      MisBP:0   MisRate:0.00%    MPKI:0.00
PC:92120     Total:36364      MisBP:0   MisRate:0.00%    MPKI:0.00
PC:17f24     Total:22583      MisBP:0   MisRate:0.00%    MPKI:0.00
PC:41010     Total:14855      MisBP:0   MisRate:0.00%    MPKI:0.00
PC:38fd2     Total:2279      MisBP:0   MisRate:0.00%    MPKI:0.00
PC:1ae46     Total:22026      MisBP:0   MisRate:0.00%    MPKI:0.00
PC:3eef0     Total:190      MisBP:0   MisRate:0.00%    MPKI:0.00
PC:1abb2     Total:80275      MisBP:0   MisRate:0.00%    MPKI:0.00
PC:1aba8     Total:81963      MisBP:0   MisRate:0.00%    MPKI:0.00
PC:3920e     Total:110      MisBP:0   MisRate:0.00%    MPKI:0.00
PC:15b6a     Total:19016      MisBP:0   MisRate:0.00%    MPKI:0.00
PC:48614     Total:50      MisBP:0   MisRate:0.00%    MPKI:0.00
PC:1abac     Total:491443      MisBP:0   MisRate:0.00%    MPKI:0.00
PC:39212     Total:118      MisBP:0   MisRate:0.00%    MPKI:0.00
PC:15b70     Total:18877      MisBP:0   MisRate:0.00%    MPKI:0.00
PC:2f428     Total:371      MisBP:0   MisRate:0.00%    MPKI:0.00
PC:2f41e     Total:604      MisBP:0   MisRate:0.00%    MPKI:0.00
PC:39218     Total:118      MisBP:0   MisRate:0.00%    MPKI:0.00
PC:387d4     Total:57      MisBP:0   MisRate:0.00%    MPKI:0.00
PC:38d44     Total:266      MisBP:0   MisRate:0.00%    MPKI:0.00
PC:2f42e     Total:348      MisBP:0   MisRate:0.00%    MPKI:0.00
PC:1abb8     Total:80244      MisBP:0   MisRate:0.00%    MPKI:0.00
PC:618c6     Total:9      MisBP:0   MisRate:0.00%    MPKI:0.00
PC:387da     Total:57      MisBP:0   MisRate:0.00%    MPKI:0.00
PC:15bb4     Total:20209      MisBP:0   MisRate:0.00%    MPKI:0.00
PC:84c9c     Total:356      MisBP:0   MisRate:0.00%    MPKI:0.00
PC:84c92     Total:356      MisBP:0   MisRate:0.00%    MPKI:0.00
PC:1f73e     Total:412      MisBP:0   MisRate:0.00%    MPKI:0.00
PC:15522     Total:152011      MisBP:0   MisRate:0.00%    MPKI:0.00
PC:32ac0     Total:2      MisBP:0   MisRate:0.00%    MPKI:0.00
PC:84c98     Total:356      MisBP:0   MisRate:0.00%    MPKI:0.00
PC:386f4     Total:380      MisBP:0   MisRate:0.00%    MPKI:0.00
PC:15526     Total:151933      MisBP:0   MisRate:0.00%    MPKI:0.00
PC:32ac4     Total:2      MisBP:0   MisRate:0.00%    MPKI:0.00
PC:4865e     Total:29      MisBP:0   MisRate:0.00%    MPKI:0.00
PC:1552a     Total:303793      MisBP:0   MisRate:0.00%    MPKI:0.00
PC:1f74c     Total:322      MisBP:0   MisRate:0.00%    MPKI:0.00
PC:617e8     Total:1      MisBP:0   MisRate:0.00%    MPKI:0.00
PC:386fc     Total:10      MisBP:0   MisRate:0.00%    MPKI:0.00
PC:1552e     Total:148969      MisBP:0   MisRate:0.00%    MPKI:0.00
PC:84ca4     Total:355      MisBP:0   MisRate:0.00%    MPKI:0.00
PC:1f750     Total:308      MisBP:0   MisRate:0.00%    MPKI:0.00
PC:38d34     Total:235      MisBP:0   MisRate:0.00%    MPKI:0.00
PC:2ddb6     Total:142      MisBP:0   MisRate:0.00%    MPKI:0.00
PC:38718     Total:3013      MisBP:0   MisRate:0.00%    MPKI:0.00
PC:37220     Total:280979      MisBP:0   MisRate:0.00%    MPKI:0.00
PC:2cbcc     Total:5      MisBP:0   MisRate:0.00%    MPKI:0.00
PC:41442     Total:208      MisBP:0   MisRate:0.00%    MPKI:0.00
PC:37228     Total:47808      MisBP:0   MisRate:0.00%    MPKI:0.00
PC:2cbd4     Total:5      MisBP:0   MisRate:0.00%    MPKI:0.00
PC:4144a     Total:208      MisBP:0   MisRate:0.00%    MPKI:0.00
PC:3c70e     Total:132021      MisBP:0   MisRate:0.00%    MPKI:0.00
PC:61804     Total:1      MisBP:0   MisRate:0.00%    MPKI:0.00
PC:2d552     Total:271      MisBP:0   MisRate:0.00%    MPKI:0.00
PC:18cdc     Total:186513      MisBP:0   MisRate:0.00%    MPKI:0.00
PC:41dc8     Total:1666      MisBP:0   MisRate:0.00%    MPKI:0.00
PC:3722c     Total:47771      MisBP:0   MisRate:0.00%    MPKI:0.00
PC:2cbd8     Total:3      MisBP:0   MisRate:0.00%    MPKI:0.00
PC:4144e     Total:10      MisBP:0   MisRate:0.00%    MPKI:0.00
PC:3c712     Total:132020      MisBP:0   MisRate:0.00%    MPKI:0.00
PC:19544     Total:1089      MisBP:0   MisRate:0.00%    MPKI:0.00
PC:617f2     Total:1      MisBP:0   MisRate:0.00%    MPKI:0.00
PC:1abf6     Total:77263      MisBP:0   MisRate:0.00%    MPKI:0.00
PC:10170     Total:283      MisBP:0   MisRate:0.00%    MPKI:0.00
PC:3925c     Total:147      MisBP:0   MisRate:0.00%    MPKI:0.00
PC:38d9c     Total:2181      MisBP:0   MisRate:0.00%    MPKI:0.00
PC:15bce     Total:26775      MisBP:0   MisRate:0.00%    MPKI:0.00
PC:48678     Total:5      MisBP:0   MisRate:0.00%    MPKI:0.00
PC:2f486     Total:65      MisBP:0   MisRate:0.00%    MPKI:0.00
PC:1ac10     Total:75085      MisBP:0   MisRate:0.00%    MPKI:0.00
PC:38fd6     Total:2385      MisBP:0   MisRate:0.00%    MPKI:0.00
PC:38706     Total:1505      MisBP:0   MisRate:0.00%    MPKI:0.00
PC:47a6e     Total:2282      MisBP:0   MisRate:0.00%    MPKI:0.00
PC:331f8     Total:2264      MisBP:0   MisRate:0.00%    MPKI:0.00
PC:61800     Total:1      MisBP:0   MisRate:0.00%    MPKI:0.00
PC:38714     Total:3013      MisBP:0   MisRate:0.00%    MPKI:0.00
PC:47a72     Total:2282      MisBP:0   MisRate:0.00%    MPKI:0.00
PC:331fc     Total:171      MisBP:0   MisRate:0.00%    MPKI:0.00
PC:37742     Total:784      MisBP:0   MisRate:0.00%    MPKI:0.00
PC:37738     Total:851      MisBP:0   MisRate:0.00%    MPKI:0.00
PC:2de22     Total:205      MisBP:0   MisRate:0.00%    MPKI:0.00
PC:195ac     Total:317473      MisBP:0   MisRate:0.00%    MPKI:0.00
PC:60cfe     Total:2      MisBP:0   MisRate:0.00%    MPKI:0.00
PC:37c12     Total:359      MisBP:0   MisRate:0.00%    MPKI:0.00
PC:41e34     Total:1116      MisBP:0   MisRate:0.00%    MPKI:0.00
PC:7c8c4     Total:6      MisBP:0   MisRate:0.00%    MPKI:0.00
PC:15e76     Total:24921      MisBP:0   MisRate:0.00%    MPKI:0.00
PC:3c774     Total:4553      MisBP:0   MisRate:0.00%    MPKI:0.00
PC:190dc     Total:6097      MisBP:0   MisRate:0.00%    MPKI:0.00
PC:2de2c     Total:377      MisBP:0   MisRate:0.00%    MPKI:0.00
PC:195b6     Total:317419      MisBP:0   MisRate:0.00%    MPKI:0.00
PC:18d52     Total:91174      MisBP:0   MisRate:0.00%    MPKI:0.00
PC:41e3e     Total:2      MisBP:0   MisRate:0.00%    MPKI:0.00
PC:3c784     Total:1865      MisBP:0   MisRate:0.00%    MPKI:0.00
PC:37746     Total:561      MisBP:0   MisRate:0.00%    MPKI:0.00
PC:190e0     Total:6097      MisBP:0   MisRate:0.00%    MPKI:0.00
PC:3c864     Total:8559      MisBP:0   MisRate:0.00%    MPKI:0.00
PC:3c84e     Total:10045      MisBP:0   MisRate:0.00%    MPKI:0.00
PC:3c852     Total:10045      MisBP:0   MisRate:0.00%    MPKI:0.00
PC:19684     Total:39788      MisBP:0   MisRate:0.00%    MPKI:0.00
PC:7a1c2     Total:2      MisBP:0   MisRate:0.00%    MPKI:0.00
PC:beffe3d8     Total:2      MisBP:0   MisRate:0.00%    MPKI:0.00
PC:16670     Total:9081      MisBP:0   MisRate:0.00%    MPKI:0.00
PC:3f75c     Total:10259      MisBP:0   MisRate:0.00%    MPKI:0.00
PC:7a1c6     Total:2      MisBP:0   MisRate:0.00%    MPKI:0.00
PC:195ba     Total:317397      MisBP:0   MisRate:0.00%    MPKI:0.00
PC:19696     Total:6169      MisBP:0   MisRate:0.00%    MPKI:0.00
PC:37732     Total:853      MisBP:0   MisRate:0.00%    MPKI:0.00
PC:195a6     Total:155      MisBP:0   MisRate:0.00%    MPKI:0.00
PC:60cf8     Total:12      MisBP:0   MisRate:0.00%    MPKI:0.00
PC:37c0c     Total:378      MisBP:0   MisRate:0.00%    MPKI:0.00
PC:2d5b8     Total:11190      MisBP:0   MisRate:0.00%    MPKI:0.00
PC:18d42     Total:105408      MisBP:0   MisRate:0.00%    MPKI:0.00
PC:41e2e     Total:28      MisBP:0   MisRate:0.00%    MPKI:0.00
PC:16922     Total:9527      MisBP:0   MisRate:0.00%    MPKI:0.00
PC:3fa06     Total:359      MisBP:0   MisRate:0.00%    MPKI:0.00
PC:1691a     Total:9232      MisBP:0   MisRate:0.00%    MPKI:0.00
PC:37268     Total:83289      MisBP:0   MisRate:0.00%    MPKI:0.00
PC:3fa0a     Total:359      MisBP:0   MisRate:0.00%    MPKI:0.00
PC:1691e     Total:9527      MisBP:0   MisRate:0.00%    MPKI:0.00
PC:301da     Total:455      MisBP:0   MisRate:0.00%    MPKI:0.00
PC:1b964     Total:70301      MisBP:0   MisRate:0.00%    MPKI:0.00
PC:3fa0e     Total:359      MisBP:0   MisRate:0.00%    MPKI:0.00
PC:1b52a     Total:666      MisBP:0   MisRate:0.00%    MPKI:0.00
PC:3c2b8     Total:25922      MisBP:0   MisRate:0.00%    MPKI:0.00
PC:301e4     Total:455      MisBP:0   MisRate:0.00%    MPKI:0.00
PC:1b96e     Total:68709      MisBP:0   MisRate:0.00%    MPKI:0.00
PC:2fdb2     Total:932      MisBP:0   MisRate:0.00%    MPKI:0.00
PC:3fa18     Total:1316      MisBP:0   MisRate:0.00%    MPKI:0.00
PC:1692c     Total:10226      MisBP:0   MisRate:0.00%    MPKI:0.00
PC:3c2bc     Total:26546      MisBP:0   MisRate:0.00%    MPKI:0.00
PC:421e8     Total:16      MisBP:0   MisRate:0.00%    MPKI:0.00
PC:3c28c     Total:38896      MisBP:0   MisRate:0.00%    MPKI:0.00
PC:41e42     Total:2      MisBP:0   MisRate:0.00%    MPKI:0.00
PC:3c788     Total:1865      MisBP:0   MisRate:0.00%    MPKI:0.00
PC:3c63a     Total:40920      MisBP:0   MisRate:0.00%    MPKI:0.00
PC:3c63e     Total:39051      MisBP:0   MisRate:0.00%    MPKI:0.00
PC:3c64e     Total:31307      MisBP:0   MisRate:0.00%    MPKI:0.00
PC:3c652     Total:31307      MisBP:0   MisRate:0.00%    MPKI:0.00
PC:3c65a     Total:29499      MisBP:0   MisRate:0.00%    MPKI:0.00
PC:3c65e     Total:29499      MisBP:0   MisRate:0.00%    MPKI:0.00
PC:7a1b0     Total:1      MisBP:0   MisRate:0.00%    MPKI:0.00
PC:3f9ec     Total:892      MisBP:0   MisRate:0.00%    MPKI:0.00
PC:16900     Total:10335      MisBP:0   MisRate:0.00%    MPKI:0.00
PC:3c292     Total:38889      MisBP:0   MisRate:0.00%    MPKI:0.00
PC:3c2a6     Total:26613      MisBP:0   MisRate:0.00%    MPKI:0.00
PC:37264     Total:83309      MisBP:0   MisRate:0.00%    MPKI:0.00
PC:301d2     Total:461      MisBP:0   MisRate:0.00%    MPKI:0.00
PC:1b95c     Total:69617      MisBP:0   MisRate:0.00%    MPKI:0.00
PC:389b2     Total:422      MisBP:0   MisRate:0.00%    MPKI:0.00
PC:47c14     Total:374      MisBP:0   MisRate:0.00%    MPKI:0.00
PC:16e6a     Total:676      MisBP:0   MisRate:0.00%    MPKI:0.00
PC:3ff56     Total:9411      MisBP:0   MisRate:0.00%    MPKI:0.00
PC:9212e     Total:6530      MisBP:0   MisRate:0.00%    MPKI:0.00
PC:17f32     Total:21547      MisBP:0   MisRate:0.00%    MPKI:0.00
PC:4101e     Total:6030      MisBP:0   MisRate:0.00%    MPKI:0.00
PC:7c860     Total:387      MisBP:0   MisRate:0.00%    MPKI:0.00
PC:15e12     Total:24933      MisBP:0   MisRate:0.00%    MPKI:0.00
PC:3d9f2     Total:103      MisBP:0   MisRate:0.00%    MPKI:0.00
PC:7b356     Total:3      MisBP:0   MisRate:0.00%    MPKI:0.00
PC:2917e     Total:268      MisBP:0   MisRate:0.00%    MPKI:0.00
PC:3d9f4     Total:103      MisBP:0   MisRate:0.00%    MPKI:0.00
PC:333a0     Total:4      MisBP:0   MisRate:0.00%    MPKI:0.00
PC:47c16     Total:374      MisBP:0   MisRate:0.00%    MPKI:0.00
PC:2d49a     Total:140      MisBP:0   MisRate:0.00%    MPKI:0.00
PC:41d10     Total:4607      MisBP:0   MisRate:0.00%    MPKI:0.00
PC:38fe2     Total:943      MisBP:0   MisRate:0.00%    MPKI:0.00
PC:3ff50     Total:9475      MisBP:0   MisRate:0.00%    MPKI:0.00
PC:15e08     Total:24934      MisBP:0   MisRate:0.00%    MPKI:0.00
PC:7b34e     Total:3      MisBP:0   MisRate:0.00%    MPKI:0.00
PC:3d9ec     Total:103      MisBP:0   MisRate:0.00%    MPKI:0.00
PC:33398     Total:4      MisBP:0   MisRate:0.00%    MPKI:0.00
PC:47c0e     Total:409      MisBP:0   MisRate:0.00%    MPKI:0.00
PC:2e36e     Total:27      MisBP:0   MisRate:0.00%    MPKI:0.00
PC:19af8     Total:12307      MisBP:0   MisRate:0.00%    MPKI:0.00
PC:16e64     Total:676      MisBP:0   MisRate:0.00%    MPKI:0.00
PC:3ef00     Total:155      MisBP:0   MisRate:0.00%    MPKI:0.00
PC:92128     Total:13060      MisBP:0   MisRate:0.00%    MPKI:0.00
PC:389ae     Total:422      MisBP:0   MisRate:0.00%    MPKI:0.00
PC:2917a     Total:267      MisBP:0   MisRate:0.00%    MPKI:0.00
PC:3d9f0     Total:103      MisBP:0   MisRate:0.00%    MPKI:0.00
PC:3339c     Total:4      MisBP:0   MisRate:0.00%    MPKI:0.00
PC:47c12     Total:374      MisBP:0   MisRate:0.00%    MPKI:0.00
PC:7b354     Total:3      MisBP:0   MisRate:0.00%    MPKI:0.00
PC:2917c     Total:268      MisBP:0   MisRate:0.00%    MPKI:0.00
PC:41d1a     Total:4602      MisBP:0   MisRate:0.00%    MPKI:0.00
PC:92136     Total:894      MisBP:0   MisRate:0.00%    MPKI:0.00
PC:17f3a     Total:21546      MisBP:0   MisRate:0.00%    MPKI:0.00
PC:41026     Total:6024      MisBP:0   MisRate:0.00%    MPKI:0.00
PC:389bc     Total:422      MisBP:0   MisRate:0.00%    MPKI:0.00
PC:29188     Total:189      MisBP:0   MisRate:0.00%    MPKI:0.00
PC:3d9fe     Total:107      MisBP:0   MisRate:0.00%    MPKI:0.00
PC:47c20     Total:374      MisBP:0   MisRate:0.00%    MPKI:0.00
PC:2d4a4     Total:139      MisBP:0   MisRate:0.00%    MPKI:0.00
PC:47c1c     Total:374      MisBP:0   MisRate:0.00%    MPKI:0.00
PC:9213a     Total:446      MisBP:0   MisRate:0.00%    MPKI:0.00
PC:17f3e     Total:20046      MisBP:0   MisRate:0.00%    MPKI:0.00
PC:4102a     Total:6024      MisBP:0   MisRate:0.00%    MPKI:0.00
PC:2f6d6     Total:101      MisBP:0   MisRate:0.00%    MPKI:0.00
PC:38fec     Total:265      MisBP:0   MisRate:0.00%    MPKI:0.00
PC:7c86c     Total:400      MisBP:0   MisRate:0.00%    MPKI:0.00
PC:61918     Total:12      MisBP:0   MisRate:0.00%    MPKI:0.00
PC:3882c     Total:1581      MisBP:0   MisRate:0.00%    MPKI:0.00
PC:3d9f8     Total:102      MisBP:0   MisRate:0.00%    MPKI:0.00
PC:15e14     Total:25000      MisBP:0   MisRate:0.00%    MPKI:0.00
PC:7b358     Total:3      MisBP:0   MisRate:0.00%    MPKI:0.00
PC:29180     Total:189      MisBP:0   MisRate:0.00%    MPKI:0.00
PC:3d9f6     Total:102      MisBP:0   MisRate:0.00%    MPKI:0.00
PC:333a2     Total:4      MisBP:0   MisRate:0.00%    MPKI:0.00
PC:47c18     Total:374      MisBP:0   MisRate:0.00%    MPKI:0.00
PC:389b6     Total:422      MisBP:0   MisRate:0.00%    MPKI:0.00
PC:7b35a     Total:3      MisBP:0   MisRate:0.00%    MPKI:0.00
PC:386a6     Total:4422      MisBP:0   MisRate:0.00%    MPKI:0.00
PC:2f6d0     Total:101      MisBP:0   MisRate:0.00%    MPKI:0.00
PC:1ae5a     Total:21684      MisBP:0   MisRate:0.00%    MPKI:0.00
PC:3ef04     Total:155      MisBP:0   MisRate:0.00%    MPKI:0.00
PC:7c866     Total:382      MisBP:0   MisRate:0.00%    MPKI:0.00
PC:15e18     Total:24998      MisBP:0   MisRate:0.00%    MPKI:0.00
PC:29184     Total:189      MisBP:0   MisRate:0.00%    MPKI:0.00
PC:3d9fa     Total:102      MisBP:0   MisRate:0.00%    MPKI:0.00
PC:41e18     Total:58      MisBP:0   MisRate:0.00%    MPKI:0.00
PC:3c75c     Total:4900      MisBP:0   MisRate:0.00%    MPKI:0.00
PC:2de04     Total:567      MisBP:0   MisRate:0.00%    MPKI:0.00
PC:1958e     Total:4217      MisBP:0   MisRate:0.00%    MPKI:0.00
PC:3c75e     Total:4900      MisBP:0   MisRate:0.00%    MPKI:0.00
PC:2de06     Total:567      MisBP:0   MisRate:0.00%    MPKI:0.00
PC:60ce2     Total:13      MisBP:0   MisRate:0.00%    MPKI:0.00
PC:37bf6     Total:1670      MisBP:0   MisRate:0.00%    MPKI:0.00
PC:18d2c     Total:171558      MisBP:0   MisRate:0.00%    MPKI:0.00
PC:4193c     Total:146      MisBP:0   MisRate:0.00%    MPKI:0.00
PC:3c2ba     Total:26548      MisBP:0   MisRate:0.00%    MPKI:0.00
PC:37278     Total:80811      MisBP:0   MisRate:0.00%    MPKI:0.00
PC:2cc24     Total:340      MisBP:0   MisRate:0.00%    MPKI:0.00
PC:4149a     Total:2365      MisBP:0   MisRate:0.00%    MPKI:0.00
PC:37720     Total:911      MisBP:0   MisRate:0.00%    MPKI:0.00
PC:19594     Total:3001      MisBP:0   MisRate:0.00%    MPKI:0.00
PC:41e1c     Total:58      MisBP:0   MisRate:0.00%    MPKI:0.00
PC:3c2be     Total:26543      MisBP:0   MisRate:0.00%    MPKI:0.00
PC:41e12     Total:62      MisBP:0   MisRate:0.00%    MPKI:0.00
PC:421ce     Total:16      MisBP:0   MisRate:0.00%    MPKI:0.00
PC:190e2     Total:3031      MisBP:0   MisRate:0.00%    MPKI:0.00
PC:3726e     Total:83259      MisBP:0   MisRate:0.00%    MPKI:0.00
PC:2cc1a     Total:233      MisBP:0   MisRate:0.00%    MPKI:0.00
PC:41490     Total:2517      MisBP:0   MisRate:0.00%    MPKI:0.00
PC:1958a     Total:4217      MisBP:0   MisRate:0.00%    MPKI:0.00
PC:37bf0     Total:1731      MisBP:0   MisRate:0.00%    MPKI:0.00
PC:2d59c     Total:22494      MisBP:0   MisRate:0.00%    MPKI:0.00
PC:421dc     Total:16      MisBP:0   MisRate:0.00%    MPKI:0.00
PC:3c2b4     Total:25978      MisBP:0   MisRate:0.00%    MPKI:0.00
PC:421d2     Total:16      MisBP:0   MisRate:0.00%    MPKI:0.00
PC:190e6     Total:3031      MisBP:0   MisRate:0.00%    MPKI:0.00
PC:3774c     Total:62      MisBP:0   MisRate:0.00%    MPKI:0.00
PC:37272     Total:83249      MisBP:0   MisRate:0.00%    MPKI:0.00
PC:41494     Total:2365      MisBP:0   MisRate:0.00%    MPKI:0.00
PC:3771a     Total:1504      MisBP:0   MisRate:0.00%    MPKI:0.00
PC:18850     Total:9649      MisBP:0   MisRate:0.00%    MPKI:0.00
PC:5ff5e     Total:72      MisBP:0   MisRate:0.00%    MPKI:0.00
PC:195a4     Total:3667      MisBP:0   MisRate:0.00%    MPKI:0.00
PC:37c0a     Total:378      MisBP:0   MisRate:0.00%    MPKI:0.00
PC:2ddbc     Total:135      MisBP:0   MisRate:0.00%    MPKI:0.00
PC:19546     Total:4241      MisBP:0   MisRate:0.00%    MPKI:0.00
PC:2d558     Total:276      MisBP:0   MisRate:0.00%    MPKI:0.00
PC:41dce     Total:983      MisBP:0   MisRate:0.00%    MPKI:0.00
PC:607c2     Total:5      MisBP:0   MisRate:0.00%    MPKI:0.00
PC:376d6     Total:6167      MisBP:0   MisRate:0.00%    MPKI:0.00
PC:2de1a     Total:567      MisBP:0   MisRate:0.00%    MPKI:0.00
PC:418f8     Total:1480      MisBP:0   MisRate:0.00%    MPKI:0.00
PC:3c718     Total:123743      MisBP:0   MisRate:0.00%    MPKI:0.00
PC:2ddc0     Total:61      MisBP:0   MisRate:0.00%    MPKI:0.00
PC:1954a     Total:4241      MisBP:0   MisRate:0.00%    MPKI:0.00
PC:37bb0     Total:363      MisBP:0   MisRate:0.00%    MPKI:0.00
PC:2d55c     Total:276      MisBP:0   MisRate:0.00%    MPKI:0.00
PC:41dd2     Total:983      MisBP:0   MisRate:0.00%    MPKI:0.00
PC:607c6     Total:5      MisBP:0   MisRate:0.00%    MPKI:0.00
PC:18d32     Total:171540      MisBP:0   MisRate:0.00%    MPKI:0.00
PC:190f0     Total:6629      MisBP:0   MisRate:0.00%    MPKI:0.00
PC:3727c     Total:3023      MisBP:0   MisRate:0.00%    MPKI:0.00
[...]
PC:1c1fc     Total:77371      MisBP:5113   MisRate:6.61%    MPKI:0.02
PC:18a14     Total:40586      MisBP:5114   MisRate:12.60%    MPKI:0.02
PC:1c3b8     Total:14882      MisBP:5126   MisRate:34.44%    MPKI:0.02
PC:3f4cc     Total:26425      MisBP:5168   MisRate:19.56%    MPKI:0.02
PC:1c412     Total:42599      MisBP:5168   MisRate:12.13%    MPKI:0.02
PC:2cd68     Total:53525      MisBP:5170   MisRate:9.66%    MPKI:0.02
PC:28788     Total:61388      MisBP:5179   MisRate:8.44%    MPKI:0.02
PC:164c6     Total:30020      MisBP:5188   MisRate:17.28%    MPKI:0.02
PC:15890     Total:37303      MisBP:5204   MisRate:13.95%    MPKI:0.02
PC:1ac4c     Total:105958      MisBP:5223   MisRate:4.93%    MPKI:0.02
PC:4110c     Total:43187      MisBP:5267   MisRate:12.20%    MPKI:0.02
PC:19762     Total:33231      MisBP:5272   MisRate:15.86%    MPKI:0.02
PC:1a78a     Total:22156      MisBP:5281   MisRate:23.84%    MPKI:0.02
PC:1614c     Total:22191      MisBP:5299   MisRate:23.88%    MPKI:0.02
PC:2cb26     Total:56204      MisBP:5319   MisRate:9.46%    MPKI:0.02
PC:192b4     Total:57945      MisBP:5324   MisRate:9.19%    MPKI:0.02
PC:306c2     Total:124332      MisBP:5367   MisRate:4.32%    MPKI:0.02
PC:1c35c     Total:24161      MisBP:5377   MisRate:22.25%    MPKI:0.02
PC:28796     Total:54039      MisBP:5382   MisRate:9.96%    MPKI:0.02
PC:2d294     Total:105626      MisBP:5387   MisRate:5.10%    MPKI:0.02
PC:18b12     Total:35462      MisBP:5405   MisRate:15.24%    MPKI:0.02
PC:3ce9a     Total:20746      MisBP:5493   MisRate:26.48%    MPKI:0.02
PC:319c8     Total:29776      MisBP:5505   MisRate:18.49%    MPKI:0.02
PC:2cda0     Total:44371      MisBP:5584   MisRate:12.58%    MPKI:0.02
PC:286ac     Total:77711      MisBP:5609   MisRate:7.22%    MPKI:0.02
PC:2caae     Total:50715      MisBP:5675   MisRate:11.19%    MPKI:0.02
PC:1978a     Total:28346      MisBP:5676   MisRate:20.02%    MPKI:0.02
PC:40936     Total:19734      MisBP:5773   MisRate:29.25%    MPKI:0.02
PC:15d22     Total:27744      MisBP:5786   MisRate:20.85%    MPKI:0.02
PC:2d742     Total:38094      MisBP:5807   MisRate:15.24%    MPKI:0.02
PC:1acc2     Total:61825      MisBP:5810   MisRate:9.40%    MPKI:0.02
PC:3f4d2     Total:20335      MisBP:5811   MisRate:28.58%    MPKI:0.02
PC:1608e     Total:18962      MisBP:5877   MisRate:30.99%    MPKI:0.02
PC:3c5cc     Total:41964      MisBP:5891   MisRate:14.04%    MPKI:0.02
PC:3cfec     Total:39585      MisBP:5893   MisRate:14.89%    MPKI:0.02
PC:15e94     Total:19451      MisBP:5896   MisRate:30.31%    MPKI:0.02
PC:18bec     Total:561446      MisBP:5920   MisRate:1.05%    MPKI:0.02
PC:2d688     Total:40502      MisBP:5955   MisRate:14.70%    MPKI:0.02
PC:15e30     Total:23179      MisBP:5959   MisRate:25.71%    MPKI:0.02
PC:197da     Total:66300      MisBP:5998   MisRate:9.05%    MPKI:0.02
PC:199e8     Total:92163      MisBP:6013   MisRate:6.52%    MPKI:0.02
PC:1c15c     Total:58309      MisBP:6072   MisRate:10.41%    MPKI:0.02
PC:2ca4a     Total:35121      MisBP:6095   MisRate:17.35%    MPKI:0.02
PC:3cdfa     Total:36057      MisBP:6110   MisRate:16.95%    MPKI:0.02
PC:40b32     Total:105560      MisBP:6173   MisRate:5.85%    MPKI:0.02
PC:2ce48     Total:55760      MisBP:6246   MisRate:11.20%    MPKI:0.02
PC:3c7bc     Total:52679      MisBP:6250   MisRate:11.86%    MPKI:0.02
PC:2d878     Total:57434      MisBP:6294   MisRate:10.96%    MPKI:0.02
PC:3cd96     Total:27316      MisBP:6327   MisRate:23.16%    MPKI:0.02
PC:1615e     Total:29315      MisBP:6330   MisRate:21.59%    MPKI:0.02
PC:1ad02     Total:35765      MisBP:6338   MisRate:17.72%    MPKI:0.02
PC:190a6     Total:38161      MisBP:6346   MisRate:16.63%    MPKI:0.02
PC:18e38     Total:75521      MisBP:6402   MisRate:8.48%    MPKI:0.02
PC:16138     Total:34090      MisBP:6411   MisRate:18.81%    MPKI:0.02
PC:478b8     Total:35301      MisBP:6414   MisRate:18.17%    MPKI:0.02
PC:37e7a     Total:128310      MisBP:6442   MisRate:5.02%    MPKI:0.02
PC:410ee     Total:22346      MisBP:6444   MisRate:28.84%    MPKI:0.02
PC:513b0     Total:84632      MisBP:6456   MisRate:7.63%    MPKI:0.02
PC:18f84     Total:52370      MisBP:6488   MisRate:12.39%    MPKI:0.02
PC:19a82     Total:319240      MisBP:6492   MisRate:2.03%    MPKI:0.02
PC:14ef6     Total:57229      MisBP:6520   MisRate:11.39%    MPKI:0.02
PC:196ea     Total:51524      MisBP:6522   MisRate:12.66%    MPKI:0.02
PC:3c878     Total:47463      MisBP:6522   MisRate:13.74%    MPKI:0.02
PC:3c804     Total:86332      MisBP:6523   MisRate:7.56%    MPKI:0.02
PC:1b862     Total:32288      MisBP:6529   MisRate:20.22%    MPKI:0.02
PC:47b0c     Total:48487      MisBP:6531   MisRate:13.47%    MPKI:0.02
PC:3c64a     Total:36719      MisBP:6556   MisRate:17.85%    MPKI:0.02
PC:3cb10     Total:43424      MisBP:6569   MisRate:15.13%    MPKI:0.02
PC:3e748     Total:26090      MisBP:6608   MisRate:25.33%    MPKI:0.02
PC:3c634     Total:46428      MisBP:6675   MisRate:14.38%    MPKI:0.02
PC:288b8     Total:88260      MisBP:6776   MisRate:7.68%    MPKI:0.02
PC:1af18     Total:55649      MisBP:6788   MisRate:12.20%    MPKI:0.02
PC:3ec3c     Total:45910      MisBP:6798   MisRate:14.81%    MPKI:0.02
PC:3c62a     Total:43352      MisBP:6870   MisRate:15.85%    MPKI:0.02
PC:162e0     Total:38423      MisBP:6919   MisRate:18.01%    MPKI:0.02
PC:15bea     Total:43770      MisBP:6926   MisRate:15.82%    MPKI:0.02
PC:2f3f4     Total:60592      MisBP:6980   MisRate:11.52%    MPKI:0.02
PC:15942     Total:63087      MisBP:7002   MisRate:11.10%    MPKI:0.02
PC:2cca2     Total:48704      MisBP:7026   MisRate:14.43%    MPKI:0.02
PC:17eae     Total:44923      MisBP:7057   MisRate:15.71%    MPKI:0.02
PC:3c264     Total:85245      MisBP:7083   MisRate:8.31%    MPKI:0.02
PC:1ae24     Total:56466      MisBP:7104   MisRate:12.58%    MPKI:0.02
PC:3be8e     Total:50795      MisBP:7187   MisRate:14.15%    MPKI:0.02
PC:2cd76     Total:41847      MisBP:7229   MisRate:17.27%    MPKI:0.02
PC:15c9c     Total:53283      MisBP:7239   MisRate:13.59%    MPKI:0.02
PC:199de     Total:81141      MisBP:7253   MisRate:8.94%    MPKI:0.02
PC:2d576     Total:34586      MisBP:7255   MisRate:20.98%    MPKI:0.02
PC:3199e     Total:86729      MisBP:7265   MisRate:8.38%    MPKI:0.02
PC:159ce     Total:103996      MisBP:7366   MisRate:7.08%    MPKI:0.02
PC:2caf6     Total:49864      MisBP:7414   MisRate:14.87%    MPKI:0.02
PC:1c200     Total:68478      MisBP:7463   MisRate:10.90%    MPKI:0.02
PC:3be8a     Total:54550      MisBP:7464   MisRate:13.68%    MPKI:0.02
PC:1882e     Total:158942      MisBP:7507   MisRate:4.72%    MPKI:0.02
PC:19358     Total:52727      MisBP:7519   MisRate:14.26%    MPKI:0.02
PC:2cd4a     Total:65448      MisBP:7577   MisRate:11.58%    MPKI:0.02
PC:16198     Total:30893      MisBP:7600   MisRate:24.60%    MPKI:0.02
PC:2d5ee     Total:47572      MisBP:7650   MisRate:16.08%    MPKI:0.02
PC:3bfc4     Total:112175      MisBP:7656   MisRate:6.83%    MPKI:0.02
PC:319bc     Total:84379      MisBP:7694   MisRate:9.12%    MPKI:0.02
PC:19748     Total:66163      MisBP:7757   MisRate:11.72%    MPKI:0.03
PC:2cdc8     Total:53526      MisBP:7893   MisRate:14.75%    MPKI:0.03
PC:1adcc     Total:86058      MisBP:7921   MisRate:9.20%    MPKI:0.03
PC:1c04a     Total:88137      MisBP:7939   MisRate:9.01%    MPKI:0.03
PC:47b58     Total:48523      MisBP:7953   MisRate:16.39%    MPKI:0.03
PC:3ec4e     Total:21244      MisBP:8022   MisRate:37.76%    MPKI:0.03
PC:24ccc     Total:109234      MisBP:8034   MisRate:7.35%    MPKI:0.03
PC:3c2d4     Total:82472      MisBP:8076   MisRate:9.79%    MPKI:0.03
PC:19364     Total:46705      MisBP:8146   MisRate:17.44%    MPKI:0.03
PC:17eb8     Total:38750      MisBP:8202   MisRate:21.17%    MPKI:0.03
PC:1c0b6     Total:54411      MisBP:8234   MisRate:15.13%    MPKI:0.03
PC:306c6     Total:122682      MisBP:8266   MisRate:6.74%    MPKI:0.03
PC:18f26     Total:65917      MisBP:8276   MisRate:12.56%    MPKI:0.03
PC:164b4     Total:32659      MisBP:8291   MisRate:25.39%    MPKI:0.03
PC:1c82c     Total:109237      MisBP:8313   MisRate:7.61%    MPKI:0.03
PC:18df0     Total:64070      MisBP:8446   MisRate:13.18%    MPKI:0.03
PC:51358     Total:831415      MisBP:8674   MisRate:1.04%    MPKI:0.03
PC:1ad06     Total:78906      MisBP:8687   MisRate:11.01%    MPKI:0.03
PC:84be4     Total:695326      MisBP:8801   MisRate:1.27%    MPKI:0.03
PC:1596a     Total:118214      MisBP:8863   MisRate:7.50%    MPKI:0.03
PC:18fce     Total:58117      MisBP:8964   MisRate:15.42%    MPKI:0.03
PC:158ca     Total:74732      MisBP:8994   MisRate:12.04%    MPKI:0.03
PC:3ce00     Total:32985      MisBP:9024   MisRate:27.36%    MPKI:0.03
PC:1973e     Total:66684      MisBP:9113   MisRate:13.67%    MPKI:0.03
PC:19a52     Total:55907      MisBP:9282   MisRate:16.60%    MPKI:0.03
PC:159e8     Total:78875      MisBP:9344   MisRate:11.85%    MPKI:0.03
PC:47b94     Total:53178      MisBP:9396   MisRate:17.67%    MPKI:0.03
PC:3c7ee     Total:48707      MisBP:9521   MisRate:19.55%    MPKI:0.03
PC:15b50     Total:44616      MisBP:9688   MisRate:21.71%    MPKI:0.03
PC:15972     Total:105958      MisBP:9779   MisRate:9.23%    MPKI:0.03
PC:41130     Total:30399      MisBP:9927   MisRate:32.66%    MPKI:0.03
PC:2cc86     Total:191111      MisBP:9997   MisRate:5.23%    MPKI:0.03
PC:1c77e     Total:65052      MisBP:10112   MisRate:15.54%    MPKI:0.03
PC:159d4     Total:86055      MisBP:10156   MisRate:11.80%    MPKI:0.03
PC:2d73a     Total:96645      MisBP:10159   MisRate:10.51%    MPKI:0.03
PC:2ca8c     Total:79331      MisBP:10288   MisRate:12.97%    MPKI:0.03
PC:2fd58     Total:56247      MisBP:10321   MisRate:18.35%    MPKI:0.03
PC:156b6     Total:158757      MisBP:10336   MisRate:6.51%    MPKI:0.03
PC:2cc6c     Total:53781      MisBP:10337   MisRate:19.22%    MPKI:0.03
PC:1ad0c     Total:72475      MisBP:10799   MisRate:14.90%    MPKI:0.03
PC:18eba     Total:66231      MisBP:10802   MisRate:16.31%    MPKI:0.03
PC:15c92     Total:67362      MisBP:10816   MisRate:16.06%    MPKI:0.03
PC:3c298     Total:49743      MisBP:10939   MisRate:21.99%    MPKI:0.04
PC:1acb8     Total:53303      MisBP:10995   MisRate:20.63%    MPKI:0.04
PC:1accc     Total:63267      MisBP:11013   MisRate:17.41%    MPKI:0.04
PC:2d29e     Total:98331      MisBP:11033   MisRate:11.22%    MPKI:0.04
PC:3cff0     Total:42391      MisBP:11159   MisRate:26.32%    MPKI:0.04
PC:1acaa     Total:69261      MisBP:11167   MisRate:16.12%    MPKI:0.04
PC:2893e     Total:223904      MisBP:11288   MisRate:5.04%    MPKI:0.04
PC:3cb1a     Total:52729      MisBP:11317   MisRate:21.46%    MPKI:0.04
PC:159fe     Total:80943      MisBP:11319   MisRate:13.98%    MPKI:0.04
PC:1add0     Total:79180      MisBP:11512   MisRate:14.54%    MPKI:0.04
PC:159f8     Total:73433      MisBP:11592   MisRate:15.79%    MPKI:0.04
PC:1c5e4     Total:777968      MisBP:11594   MisRate:1.49%    MPKI:0.04
PC:3ce46     Total:54793      MisBP:11670   MisRate:21.30%    MPKI:0.04
PC:154b2     Total:265571      MisBP:11685   MisRate:4.40%    MPKI:0.04
PC:197f4     Total:63973      MisBP:11791   MisRate:18.43%    MPKI:0.04
PC:19a6c     Total:59025      MisBP:11960   MisRate:20.26%    MPKI:0.04
PC:3c7b2     Total:81371      MisBP:12019   MisRate:14.77%    MPKI:0.04
PC:3c692     Total:64211      MisBP:12130   MisRate:18.89%    MPKI:0.04
PC:3c7e0     Total:74577      MisBP:12208   MisRate:16.37%    MPKI:0.04
PC:2cc64     Total:115400      MisBP:12271   MisRate:10.63%    MPKI:0.04
PC:513c2     Total:77072      MisBP:12283   MisRate:15.94%    MPKI:0.04
PC:28718     Total:77965      MisBP:12389   MisRate:15.89%    MPKI:0.04
PC:2d2ae     Total:64617      MisBP:12392   MisRate:19.18%    MPKI:0.04
PC:159ee     Total:76174      MisBP:12469   MisRate:16.37%    MPKI:0.04
PC:3cfa6     Total:150847      MisBP:12601   MisRate:8.35%    MPKI:0.04
PC:17de6     Total:66879      MisBP:12728   MisRate:19.03%    MPKI:0.04
PC:15a08     Total:90798      MisBP:12747   MisRate:14.04%    MPKI:0.04
PC:1acf6     Total:53000      MisBP:12859   MisRate:24.26%    MPKI:0.04
PC:47b60     Total:52384      MisBP:13084   MisRate:24.98%    MPKI:0.04
PC:9e50c     Total:350754      MisBP:13123   MisRate:3.74%    MPKI:0.04
PC:2e870     Total:127931      MisBP:13494   MisRate:10.55%    MPKI:0.04
PC:28644     Total:80768      MisBP:13573   MisRate:16.80%    MPKI:0.04
PC:18d56     Total:90831      MisBP:13792   MisRate:15.18%    MPKI:0.04
PC:199dc     Total:116009      MisBP:13931   MisRate:12.01%    MPKI:0.04
PC:1acd6     Total:106796      MisBP:13958   MisRate:13.07%    MPKI:0.05
PC:17e74     Total:54893      MisBP:14093   MisRate:25.67%    MPKI:0.05
PC:17fcc     Total:130675      MisBP:14145   MisRate:10.82%    MPKI:0.05
PC:287d4     Total:65918      MisBP:14573   MisRate:22.11%    MPKI:0.05
PC:3c220     Total:320373      MisBP:14641   MisRate:4.57%    MPKI:0.05
PC:1aca4     Total:81976      MisBP:14646   MisRate:17.87%    MPKI:0.05
PC:15a0e     Total:101085      MisBP:14783   MisRate:14.62%    MPKI:0.05
PC:18dfa     Total:101849      MisBP:15228   MisRate:14.95%    MPKI:0.05
PC:512ba     Total:181385      MisBP:15269   MisRate:8.42%    MPKI:0.05
PC:1b830     Total:44978      MisBP:15533   MisRate:34.53%    MPKI:0.05
PC:19614     Total:249508      MisBP:15842   MisRate:6.35%    MPKI:0.05
PC:1aca0     Total:97007      MisBP:16104   MisRate:16.60%    MPKI:0.05
PC:1576e     Total:89511      MisBP:16195   MisRate:18.09%    MPKI:0.05
PC:15950     Total:73492      MisBP:16341   MisRate:22.24%    MPKI:0.05
PC:1c7d4     Total:56182      MisBP:16381   MisRate:29.16%    MPKI:0.05
PC:18e00     Total:194752      MisBP:16449   MisRate:8.45%    MPKI:0.05
PC:512b6     Total:219028      MisBP:16582   MisRate:7.57%    MPKI:0.05
PC:192e0     Total:125813      MisBP:16742   MisRate:13.31%    MPKI:0.05
PC:1acbc     Total:84457      MisBP:17345   MisRate:20.54%    MPKI:0.06
PC:1c01e     Total:132751      MisBP:17551   MisRate:13.22%    MPKI:0.06
PC:18d76     Total:96913      MisBP:17736   MisRate:18.30%    MPKI:0.06
PC:1925a     Total:114360      MisBP:17795   MisRate:15.56%    MPKI:0.06
PC:1c12c     Total:124922      MisBP:18074   MisRate:14.47%    MPKI:0.06
PC:192ac     Total:128858      MisBP:18179   MisRate:14.11%    MPKI:0.06
PC:19754     Total:136473      MisBP:18477   MisRate:13.54%    MPKI:0.06
PC:1ace0     Total:114083      MisBP:19010   MisRate:16.66%    MPKI:0.06
PC:2cc8c     Total:182797      MisBP:19037   MisRate:10.41%    MPKI:0.06
PC:14e10     Total:85354      MisBP:19156   MisRate:22.44%    MPKI:0.06
PC:18f6a     Total:166726      MisBP:19330   MisRate:11.59%    MPKI:0.06
PC:176c2     Total:116331      MisBP:19353   MisRate:16.64%    MPKI:0.06
PC:3bfda     Total:132922      MisBP:19377   MisRate:14.58%    MPKI:0.06
PC:14e64     Total:176805      MisBP:19420   MisRate:10.98%    MPKI:0.06
PC:2ca90     Total:94974      MisBP:19454   MisRate:20.48%    MPKI:0.06
PC:18d72     Total:86562      MisBP:19472   MisRate:22.49%    MPKI:0.06
PC:17dac     Total:89571      MisBP:19665   MisRate:21.95%    MPKI:0.06
PC:3cfac     Total:141333      MisBP:19975   MisRate:14.13%    MPKI:0.06
PC:1c088     Total:76799      MisBP:20032   MisRate:26.08%    MPKI:0.06
PC:15964     Total:110545      MisBP:20112   MisRate:18.19%    MPKI:0.06
PC:1b7f4     Total:64242      MisBP:20143   MisRate:31.35%    MPKI:0.06
PC:1595a     Total:92653      MisBP:20227   MisRate:21.83%    MPKI:0.07
PC:1973c     Total:127822      MisBP:20364   MisRate:15.93%    MPKI:0.07
PC:18d4c     Total:105405      MisBP:20509   MisRate:19.46%    MPKI:0.07
PC:2d2a2     Total:112832      MisBP:20916   MisRate:18.54%    MPKI:0.07
PC:18d6a     Total:74175      MisBP:21557   MisRate:29.06%    MPKI:0.07
PC:3ca14     Total:195490      MisBP:22147   MisRate:11.33%    MPKI:0.07
PC:28602     Total:871810      MisBP:22205   MisRate:2.55%    MPKI:0.07
PC:15b40     Total:94388      MisBP:22243   MisRate:23.57%    MPKI:0.07
PC:2cc9c     Total:215796      MisBP:22306   MisRate:10.34%    MPKI:0.07
PC:15a1e     Total:72533      MisBP:23894   MisRate:32.94%    MPKI:0.08
PC:1c1d2     Total:118108      MisBP:23922   MisRate:20.25%    MPKI:0.08
PC:199f6     Total:149686      MisBP:23928   MisRate:15.99%    MPKI:0.08
PC:19314     Total:128952      MisBP:24412   MisRate:18.93%    MPKI:0.08
PC:512ac     Total:355640      MisBP:24438   MisRate:6.87%    MPKI:0.08
PC:3bfc6     Total:112095      MisBP:24854   MisRate:22.17%    MPKI:0.08
PC:14fb8     Total:542979      MisBP:25363   MisRate:4.67%    MPKI:0.08
PC:18cde     Total:186469      MisBP:25510   MisRate:13.68%    MPKI:0.08
PC:1bfe8     Total:180549      MisBP:25536   MisRate:14.14%    MPKI:0.08
PC:155e6     Total:140240      MisBP:25976   MisRate:18.52%    MPKI:0.08
PC:18dde     Total:84843      MisBP:26445   MisRate:31.17%    MPKI:0.09
PC:14ea4     Total:185398      MisBP:27335   MisRate:14.74%    MPKI:0.09
PC:14fa8     Total:108254      MisBP:27348   MisRate:25.26%    MPKI:0.09
PC:1c688     Total:184181      MisBP:27379   MisRate:14.87%    MPKI:0.09
PC:15a16     Total:89408      MisBP:28182   MisRate:31.52%    MPKI:0.09
PC:3ca34     Total:190782      MisBP:28729   MisRate:15.06%    MPKI:0.09
PC:157ba     Total:88331      MisBP:29411   MisRate:33.30%    MPKI:0.09
PC:3ca0a     Total:234068      MisBP:29442   MisRate:12.58%    MPKI:0.09
PC:154ac     Total:254949      MisBP:29725   MisRate:11.66%    MPKI:0.10
PC:3c224     Total:334469      MisBP:29769   MisRate:8.90%    MPKI:0.10
PC:14ee6     Total:188905      MisBP:30618   MisRate:16.21%    MPKI:0.10
PC:3bf76     Total:578632      MisBP:31215   MisRate:5.39%    MPKI:0.10
PC:18d3e     Total:121587      MisBP:31325   MisRate:25.76%    MPKI:0.10
PC:3bf88     Total:84087      MisBP:31373   MisRate:37.31%    MPKI:0.10
PC:154a2     Total:145599      MisBP:31387   MisRate:21.56%    MPKI:0.10
PC:156e4     Total:224307      MisBP:33386   MisRate:14.88%    MPKI:0.11
PC:3c6e4     Total:145639      MisBP:33976   MisRate:23.33%    MPKI:0.11
PC:14f26     Total:197795      MisBP:34343   MisRate:17.36%    MPKI:0.11
PC:18bb2     Total:196542      MisBP:35482   MisRate:18.05%    MPKI:0.11
PC:3c73a     Total:227165      MisBP:35773   MisRate:15.75%    MPKI:0.12
PC:51360     Total:831687      MisBP:36553   MisRate:4.40%    MPKI:0.12
PC:1bf88     Total:107138      MisBP:36599   MisRate:34.16%    MPKI:0.12
PC:156a4     Total:204161      MisBP:37708   MisRate:18.47%    MPKI:0.12
PC:1bfca     Total:192414      MisBP:38174   MisRate:19.84%    MPKI:0.12
PC:18d34     Total:171540      MisBP:38509   MisRate:22.45%    MPKI:0.12
PC:51368     Total:614973      MisBP:38552   MisRate:6.27%    MPKI:0.12
PC:14fb2     Total:504949      MisBP:38878   MisRate:7.70%    MPKI:0.13
PC:1bfe2     Total:226701      MisBP:39395   MisRate:17.38%    MPKI:0.13
PC:14f62     Total:205087      MisBP:40016   MisRate:19.51%    MPKI:0.13
PC:1bfc4     Total:217452      MisBP:40969   MisRate:18.84%    MPKI:0.13
PC:24cc8     Total:147124      MisBP:45536   MisRate:30.95%    MPKI:0.15
PC:3ca32     Total:321812      MisBP:47140   MisRate:14.65%    MPKI:0.15
PC:2866a     Total:861887      MisBP:52909   MisRate:6.14%    MPKI:0.17
PC:1bfa8     Total:176510      MisBP:53089   MisRate:30.08%    MPKI:0.17
PC:188ca     Total:274869      MisBP:59945   MisRate:21.81%    MPKI:0.19
PC:18bda     Total:509901      MisBP:60350   MisRate:11.84%    MPKI:0.19
PC:1c5f4     Total:667275      MisBP:63103   MisRate:9.46%    MPKI:0.20
PC:17694     Total:1701679      MisBP:65829   MisRate:3.87%    MPKI:0.21
PC:3bf7c     Total:553339      MisBP:78667   MisRate:14.22%    MPKI:0.25
PC:18bde     Total:564294      MisBP:81325   MisRate:14.41%    MPKI:0.26
PC:1c67a     Total:587908      MisBP:114216   MisRate:19.43%    MPKI:0.37
PC:1c5ec     Total:715140      MisBP:120631   MisRate:16.87%    MPKI:0.39
PC:1a934     Total:582667      MisBP:146934   MisRate:25.22%    MPKI:0.47
PC:84c10     Total:681177      MisBP:304898   MisRate:44.76%    MPKI:0.98
Totfetch:645045378  TotInsts:310000000  TotMis : inf%   MPKI : 20.29
=============finish sim!!!!!!=============
Done running SimPoint!
