Global frequency set at 1000000000000 ticks per second
 Register [printBranch()] ExitCallback !!!!!!! 
gem5 Simulator System.  https://www.gem5.org
gem5 is copyrighted software; use the --copyright option for details.

gem5 version 22.0.0.2
gem5 compiled Sep  7 2022 00:42:18
gem5 started Sep  7 2022 05:47:45
gem5 executing on a100, pid 2813029
command line: /data/zxf/gem5/gem5-prof/build/ARM/gem5.fast --outdir=/data/zxf/checkpoint/spec2006/445.gobmk/prof/gobmk_ckp_13 /data/zxf/gem5/gem5-prof/configs/example/se.py --cpu-type O3CPU --cpu-clock 1GHz --num-cpu 1 --caches --l2cache --l1i_size 32kB --l1d_size 32kB --l2_size 1MB --l1i_assoc 8 --l1d_assoc 8 --l2_assoc 16 --cacheline_size 64 --mem-type DDR3_2133_8x8 --mem-size 16GB --l1d-hwp-type=BOPPrefetcher --restore-simpoint-checkpoint -r 13 --checkpoint-dir /data/zxf/checkpoint/spec2006/445.gobmk/ckpt -i 13x13.tst -c gobmk_base.gcc41-64bit -o '--quiet --mode gtp'

info: Standard input is not a terminal, disabling listeners.
Resuming from /data/zxf/checkpoint/spec2006/445.gobmk/ckpt/cpt.simpoint_12_inst_244190000000_weight_0.113938_interval_300000000_warmup_10000000
Resuming from SimPoint #12, start_inst:244190000000, weight:0.113938, interval:300000000, warmup:10000000
Switch at curTick count:10000
Switched CPUS @ tick 165220879787000
[(<m5.objects.ArmCPU.ArmAtomicSimpleCPU object at 0x7f65f58b9bb0>, <m5.objects.ArmCPU.ArmO3CPU object at 0x7f65f58d2e20>)]
switching cpus



+++++++++++++++++++++++++zxf print simpoint+++++++++++++++++++++++++++
Warmed up! Dumping and resetting stats!


=============start sim!!!!!!=============
PC:407d8     Total:51875      MisBP:0   MisRate:0.00%    MPKI:0.00
PC:3f5ee     Total:2111      MisBP:0   MisRate:0.00%    MPKI:0.00
PC:15c14     Total:3352      MisBP:0   MisRate:0.00%    MPKI:0.00
PC:929a2     Total:10      MisBP:0   MisRate:0.00%    MPKI:0.00
PC:1658c     Total:15214      MisBP:0   MisRate:0.00%    MPKI:0.00
PC:3ff66     Total:9474      MisBP:0   MisRate:0.00%    MPKI:0.00
PC:176e8     Total:100626      MisBP:0   MisRate:0.00%    MPKI:0.00
PC:407d4     Total:39941      MisBP:0   MisRate:0.00%    MPKI:0.00
PC:3f5f8     Total:2110      MisBP:0   MisRate:0.00%    MPKI:0.00
PC:929ac     Total:9      MisBP:0   MisRate:0.00%    MPKI:0.00
PC:3ff70     Total:9474      MisBP:0   MisRate:0.00%    MPKI:0.00
PC:176ec     Total:100626      MisBP:0   MisRate:0.00%    MPKI:0.00
PC:176de     Total:100633      MisBP:0   MisRate:0.00%    MPKI:0.00
PC:929b0     Total:9      MisBP:0   MisRate:0.00%    MPKI:0.00
PC:1659a     Total:10443      MisBP:0   MisRate:0.00%    MPKI:0.00
PC:3ff74     Total:9474      MisBP:0   MisRate:0.00%    MPKI:0.00
PC:176f6     Total:1320      MisBP:0   MisRate:0.00%    MPKI:0.00
PC:16e08     Total:1095      MisBP:0   MisRate:0.00%    MPKI:0.00
PC:407e2     Total:51735      MisBP:0   MisRate:0.00%    MPKI:0.00
PC:3f606     Total:1954      MisBP:0   MisRate:0.00%    MPKI:0.00
PC:929ba     Total:8      MisBP:0   MisRate:0.00%    MPKI:0.00
PC:1676a     Total:15688      MisBP:0   MisRate:0.00%    MPKI:0.00
PC:1676e     Total:14310      MisBP:0   MisRate:0.00%    MPKI:0.00
PC:9298c     Total:10      MisBP:0   MisRate:0.00%    MPKI:0.00
PC:16dd6     Total:1216      MisBP:0   MisRate:0.00%    MPKI:0.00
PC:407b0     Total:16246      MisBP:0   MisRate:0.00%    MPKI:0.00
PC:3f5d4     Total:130      MisBP:0   MisRate:0.00%    MPKI:0.00
PC:15bfa     Total:14774      MisBP:0   MisRate:0.00%    MPKI:0.00
PC:92988     Total:10      MisBP:0   MisRate:0.00%    MPKI:0.00
PC:410a2     Total:32298      MisBP:0   MisRate:0.00%    MPKI:0.00
PC:176c8     Total:101770      MisBP:0   MisRate:0.00%    MPKI:0.00
PC:16dda     Total:1216      MisBP:0   MisRate:0.00%    MPKI:0.00
PC:407b4     Total:16248      MisBP:0   MisRate:0.00%    MPKI:0.00
PC:3f5d8     Total:130      MisBP:0   MisRate:0.00%    MPKI:0.00
PC:15bfe     Total:14387      MisBP:0   MisRate:0.00%    MPKI:0.00
PC:40148     Total:2729      MisBP:0   MisRate:0.00%    MPKI:0.00
PC:410a8     Total:32298      MisBP:0   MisRate:0.00%    MPKI:0.00
PC:176ce     Total:101769      MisBP:0   MisRate:0.00%    MPKI:0.00
PC:3f5de     Total:130      MisBP:0   MisRate:0.00%    MPKI:0.00
PC:15c04     Total:13131      MisBP:0   MisRate:0.00%    MPKI:0.00
PC:92992     Total:10      MisBP:0   MisRate:0.00%    MPKI:0.00
PC:410ac     Total:32325      MisBP:0   MisRate:0.00%    MPKI:0.00
PC:176d2     Total:101769      MisBP:0   MisRate:0.00%    MPKI:0.00
PC:3f5e2     Total:130      MisBP:0   MisRate:0.00%    MPKI:0.00
PC:15c08     Total:13131      MisBP:0   MisRate:0.00%    MPKI:0.00
PC:92996     Total:10      MisBP:0   MisRate:0.00%    MPKI:0.00
PC:17f54     Total:94494      MisBP:0   MisRate:0.00%    MPKI:0.00
PC:16640     Total:8937      MisBP:0   MisRate:0.00%    MPKI:0.00
PC:4001a     Total:21      MisBP:0   MisRate:0.00%    MPKI:0.00
PC:1664a     Total:8934      MisBP:0   MisRate:0.00%    MPKI:0.00
PC:40024     Total:48      MisBP:0   MisRate:0.00%    MPKI:0.00
PC:3ef18     Total:215      MisBP:0   MisRate:0.00%    MPKI:0.00
PC:1553e     Total:141689      MisBP:0   MisRate:0.00%    MPKI:0.00
PC:3ef1c     Total:318      MisBP:0   MisRate:0.00%    MPKI:0.00
PC:15542     Total:141530      MisBP:0   MisRate:0.00%    MPKI:0.00
PC:17666     Total:80369      MisBP:0   MisRate:0.00%    MPKI:0.00
PC:41040     Total:5286      MisBP:0   MisRate:0.00%    MPKI:0.00
PC:4192e     Total:486      MisBP:0   MisRate:0.00%    MPKI:0.00
PC:40016     Total:21      MisBP:0   MisRate:0.00%    MPKI:0.00
PC:19700     Total:24872      MisBP:0   MisRate:0.00%    MPKI:0.00
PC:37d6a     Total:1583      MisBP:0   MisRate:0.00%    MPKI:0.00
PC:19704     Total:24872      MisBP:0   MisRate:0.00%    MPKI:0.00
PC:37d6e     Total:1583      MisBP:0   MisRate:0.00%    MPKI:0.00
PC:19708     Total:24872      MisBP:0   MisRate:0.00%    MPKI:0.00
PC:37d72     Total:1513      MisBP:0   MisRate:0.00%    MPKI:0.00
PC:1970c     Total:24872      MisBP:0   MisRate:0.00%    MPKI:0.00
PC:37d76     Total:7456      MisBP:0   MisRate:0.00%    MPKI:0.00
PC:19710     Total:24872      MisBP:0   MisRate:0.00%    MPKI:0.00
PC:37d78     Total:7488      MisBP:0   MisRate:0.00%    MPKI:0.00
PC:3ffe8     Total:13833      MisBP:0   MisRate:0.00%    MPKI:0.00
PC:38ca6     Total:1116      MisBP:0   MisRate:0.00%    MPKI:0.00
PC:2eeb6     Total:59      MisBP:0   MisRate:0.00%    MPKI:0.00
PC:16798     Total:3792      MisBP:0   MisRate:0.00%    MPKI:0.00
PC:40172     Total:730      MisBP:0   MisRate:0.00%    MPKI:0.00
PC:165ea     Total:7396      MisBP:0   MisRate:0.00%    MPKI:0.00
PC:3ffc4     Total:13818      MisBP:0   MisRate:0.00%    MPKI:0.00
PC:165f4     Total:10491      MisBP:0   MisRate:0.00%    MPKI:0.00
PC:3ffce     Total:13973      MisBP:0   MisRate:0.00%    MPKI:0.00
PC:3ffd8     Total:13831      MisBP:0   MisRate:0.00%    MPKI:0.00
PC:16604     Total:9992      MisBP:0   MisRate:0.00%    MPKI:0.00
PC:3ffde     Total:13900      MisBP:0   MisRate:0.00%    MPKI:0.00
PC:176c4     Total:101759      MisBP:0   MisRate:0.00%    MPKI:0.00
PC:41154     Total:2855      MisBP:0   MisRate:0.00%    MPKI:0.00
PC:1777a     Total:2468      MisBP:0   MisRate:0.00%    MPKI:0.00
PC:3f68a     Total:262      MisBP:0   MisRate:0.00%    MPKI:0.00
PC:15cb0     Total:10020      MisBP:0   MisRate:0.00%    MPKI:0.00
PC:92a3e     Total:5      MisBP:0   MisRate:0.00%    MPKI:0.00
PC:40006     Total:321      MisBP:0   MisRate:0.00%    MPKI:0.00
PC:40012     Total:21      MisBP:0   MisRate:0.00%    MPKI:0.00
PC:1778c     Total:1196      MisBP:0   MisRate:0.00%    MPKI:0.00
PC:92a50     Total:21      MisBP:0   MisRate:0.00%    MPKI:0.00
PC:1663c     Total:9280      MisBP:0   MisRate:0.00%    MPKI:0.00
PC:3fdda     Total:13673      MisBP:0   MisRate:0.00%    MPKI:0.00
PC:312c8     Total:1767      MisBP:0   MisRate:0.00%    MPKI:0.00
PC:3fa16     Total:3347      MisBP:0   MisRate:0.00%    MPKI:0.00
PC:1603c     Total:2792      MisBP:0   MisRate:0.00%    MPKI:0.00
PC:1574e     Total:96600      MisBP:0   MisRate:0.00%    MPKI:0.00
PC:3f128     Total:71      MisBP:0   MisRate:0.00%    MPKI:0.00
PC:3e8c4     Total:11067      MisBP:0   MisRate:0.00%    MPKI:0.00
PC:14ef0     Total:66887      MisBP:0   MisRate:0.00%    MPKI:0.00
PC:3e8ca     Total:24788      MisBP:0   MisRate:0.00%    MPKI:0.00
PC:14ef4     Total:66886      MisBP:0   MisRate:0.00%    MPKI:0.00
PC:3e8ce     Total:25082      MisBP:0   MisRate:0.00%    MPKI:0.00
PC:16400     Total:20089      MisBP:0   MisRate:0.00%    MPKI:0.00
PC:1ca52     Total:345      MisBP:0   MisRate:0.00%    MPKI:0.00
PC:16414     Total:26430      MisBP:0   MisRate:0.00%    MPKI:0.00
PC:3fdee     Total:11920      MisBP:0   MisRate:0.00%    MPKI:0.00
PC:16418     Total:26418      MisBP:0   MisRate:0.00%    MPKI:0.00
PC:3fdf2     Total:11920      MisBP:0   MisRate:0.00%    MPKI:0.00
PC:16420     Total:26418      MisBP:0   MisRate:0.00%    MPKI:0.00
PC:3fdfa     Total:11592      MisBP:0   MisRate:0.00%    MPKI:0.00
PC:3fe3e     Total:9091      MisBP:0   MisRate:0.00%    MPKI:0.00
PC:3fe42     Total:969      MisBP:0   MisRate:0.00%    MPKI:0.00
PC:3fe46     Total:967      MisBP:0   MisRate:0.00%    MPKI:0.00
PC:16476     Total:22480      MisBP:0   MisRate:0.00%    MPKI:0.00
PC:312b6     Total:2273      MisBP:0   MisRate:0.00%    MPKI:0.00
PC:1ca26     Total:33719      MisBP:0   MisRate:0.00%    MPKI:0.00
PC:1ca2a     Total:33719      MisBP:0   MisRate:0.00%    MPKI:0.00
PC:312a0     Total:7814      MisBP:0   MisRate:0.00%    MPKI:0.00
PC:3b09a     Total:12      MisBP:0   MisRate:0.00%    MPKI:0.00
PC:1ca34     Total:33513      MisBP:0   MisRate:0.00%    MPKI:0.00
PC:3b09e     Total:12      MisBP:0   MisRate:0.00%    MPKI:0.00
PC:1ca38     Total:33513      MisBP:0   MisRate:0.00%    MPKI:0.00
PC:312ae     Total:2135      MisBP:0   MisRate:0.00%    MPKI:0.00
PC:1ca3c     Total:33512      MisBP:0   MisRate:0.00%    MPKI:0.00
PC:312b2     Total:2314      MisBP:0   MisRate:0.00%    MPKI:0.00
PC:1ca40     Total:33372      MisBP:0   MisRate:0.00%    MPKI:0.00
PC:3fe50     Total:967      MisBP:0   MisRate:0.00%    MPKI:0.00
PC:3b0aa     Total:11      MisBP:0   MisRate:0.00%    MPKI:0.00
PC:1ca44     Total:33372      MisBP:0   MisRate:0.00%    MPKI:0.00
PC:312ba     Total:2272      MisBP:0   MisRate:0.00%    MPKI:0.00
PC:1ca46     Total:345      MisBP:0   MisRate:0.00%    MPKI:0.00
PC:1ca4a     Total:3450      MisBP:0   MisRate:0.00%    MPKI:0.00
PC:312c0     Total:1770      MisBP:0   MisRate:0.00%    MPKI:0.00
PC:3b0b4     Total:3      MisBP:0   MisRate:0.00%    MPKI:0.00
PC:1ca4e     Total:345      MisBP:0   MisRate:0.00%    MPKI:0.00
PC:312c4     Total:1768      MisBP:0   MisRate:0.00%    MPKI:0.00
PC:3b0b8     Total:8      MisBP:0   MisRate:0.00%    MPKI:0.00
PC:407a6     Total:15863      MisBP:0   MisRate:0.00%    MPKI:0.00
PC:176b4     Total:91591      MisBP:0   MisRate:0.00%    MPKI:0.00
PC:16dc6     Total:1223      MisBP:0   MisRate:0.00%    MPKI:0.00
PC:407a0     Total:15863      MisBP:0   MisRate:0.00%    MPKI:0.00
PC:3f5c4     Total:2184      MisBP:0   MisRate:0.00%    MPKI:0.00
PC:92978     Total:13      MisBP:0   MisRate:0.00%    MPKI:0.00
PC:16562     Total:22213      MisBP:0   MisRate:0.00%    MPKI:0.00
PC:3ff3c     Total:10389      MisBP:0   MisRate:0.00%    MPKI:0.00
PC:41090     Total:12287      MisBP:0   MisRate:0.00%    MPKI:0.00
PC:176b6     Total:132527      MisBP:0   MisRate:0.00%    MPKI:0.00
PC:176ba     Total:132524      MisBP:0   MisRate:0.00%    MPKI:0.00
PC:16dcc     Total:2446      MisBP:0   MisRate:0.00%    MPKI:0.00
PC:4108e     Total:12287      MisBP:0   MisRate:0.00%    MPKI:0.00
PC:9297e     Total:13      MisBP:0   MisRate:0.00%    MPKI:0.00
PC:41096     Total:12287      MisBP:0   MisRate:0.00%    MPKI:0.00
PC:176bc     Total:265039      MisBP:0   MisRate:0.00%    MPKI:0.00
PC:3f5cc     Total:130      MisBP:0   MisRate:0.00%    MPKI:0.00
PC:15bf2     Total:14774      MisBP:0   MisRate:0.00%    MPKI:0.00
PC:92980     Total:10      MisBP:0   MisRate:0.00%    MPKI:0.00
PC:1656c     Total:19412      MisBP:0   MisRate:0.00%    MPKI:0.00
PC:4109c     Total:35216      MisBP:0   MisRate:0.00%    MPKI:0.00
PC:16dd4     Total:1223      MisBP:0   MisRate:0.00%    MPKI:0.00
PC:407ae     Total:16246      MisBP:0   MisRate:0.00%    MPKI:0.00
PC:3fee0     Total:18982      MisBP:0   MisRate:0.00%    MPKI:0.00
PC:3fe74     Total:966      MisBP:0   MisRate:0.00%    MPKI:0.00
PC:3fe9a     Total:1484      MisBP:0   MisRate:0.00%    MPKI:0.00
PC:3fea6     Total:1473      MisBP:0   MisRate:0.00%    MPKI:0.00
PC:164d4     Total:2452      MisBP:0   MisRate:0.00%    MPKI:0.00
PC:3feae     Total:1473      MisBP:0   MisRate:0.00%    MPKI:0.00
PC:3fec4     Total:9442      MisBP:0   MisRate:0.00%    MPKI:0.00
PC:3fece     Total:9433      MisBP:0   MisRate:0.00%    MPKI:0.00
PC:41022     Total:8018      MisBP:0   MisRate:0.00%    MPKI:0.00
PC:17648     Total:330336      MisBP:0   MisRate:0.00%    MPKI:0.00
PC:3fedc     Total:18984      MisBP:0   MisRate:0.00%    MPKI:0.00
PC:17656     Total:82574      MisBP:0   MisRate:0.00%    MPKI:0.00
PC:19712     Total:24872      MisBP:0   MisRate:0.00%    MPKI:0.00
PC:41038     Total:5586      MisBP:0   MisRate:0.00%    MPKI:0.00
PC:1765e     Total:80386      MisBP:0   MisRate:0.00%    MPKI:0.00
PC:17668     Total:80369      MisBP:0   MisRate:0.00%    MPKI:0.00
PC:41046     Total:5286      MisBP:0   MisRate:0.00%    MPKI:0.00
PC:1766c     Total:80367      MisBP:0   MisRate:0.00%    MPKI:0.00
PC:16552     Total:13259      MisBP:0   MisRate:0.00%    MPKI:0.00
PC:3ff2c     Total:10394      MisBP:0   MisRate:0.00%    MPKI:0.00
PC:1655a     Total:12257      MisBP:0   MisRate:0.00%    MPKI:0.00
PC:3ff34     Total:10392      MisBP:0   MisRate:0.00%    MPKI:0.00
PC:3ff38     Total:10392      MisBP:0   MisRate:0.00%    MPKI:0.00
PC:6111c     Total:4      MisBP:0   MisRate:0.00%    MPKI:0.00
PC:199c0     Total:14551      MisBP:0   MisRate:0.00%    MPKI:0.00
PC:2e236     Total:340      MisBP:0   MisRate:0.00%    MPKI:0.00
PC:42aac     Total:1052      MisBP:0   MisRate:0.00%    MPKI:0.00
PC:199c2     Total:271184      MisBP:0   MisRate:0.00%    MPKI:0.00
PC:2e238     Total:339      MisBP:0   MisRate:0.00%    MPKI:0.00
PC:3cb90     Total:1764      MisBP:0   MisRate:0.00%    MPKI:0.00
PC:199c6     Total:135573      MisBP:0   MisRate:0.00%    MPKI:0.00
PC:2e23c     Total:339      MisBP:0   MisRate:0.00%    MPKI:0.00
PC:190d8     Total:9720      MisBP:0   MisRate:0.00%    MPKI:0.00
PC:3cb94     Total:1764      MisBP:0   MisRate:0.00%    MPKI:0.00
PC:37742     Total:136      MisBP:0   MisRate:0.00%    MPKI:0.00
PC:61112     Total:4      MisBP:0   MisRate:0.00%    MPKI:0.00
PC:199ca     Total:135572      MisBP:0   MisRate:0.00%    MPKI:0.00
PC:190dc     Total:9704      MisBP:0   MisRate:0.00%    MPKI:0.00
PC:42ab6     Total:93      MisBP:0   MisRate:0.00%    MPKI:0.00
PC:3cb98     Total:1665      MisBP:0   MisRate:0.00%    MPKI:0.00
PC:9d586     Total:105      MisBP:0   MisRate:0.00%    MPKI:0.00
PC:199cc     Total:135572      MisBP:0   MisRate:0.00%    MPKI:0.00
PC:2e242     Total:309      MisBP:0   MisRate:0.00%    MPKI:0.00
PC:38034     Total:2160      MisBP:0   MisRate:0.00%    MPKI:0.00
PC:37746     Total:119      MisBP:0   MisRate:0.00%    MPKI:0.00
PC:61120     Total:4      MisBP:0   MisRate:0.00%    MPKI:0.00
PC:2e230     Total:340      MisBP:0   MisRate:0.00%    MPKI:0.00
PC:3cb82     Total:1787      MisBP:0   MisRate:0.00%    MPKI:0.00
PC:9d570     Total:219      MisBP:0   MisRate:0.00%    MPKI:0.00
PC:36b22     Total:325      MisBP:0   MisRate:0.00%    MPKI:0.00
PC:3772e     Total:169      MisBP:0   MisRate:0.00%    MPKI:0.00
PC:61108     Total:4      MisBP:0   MisRate:0.00%    MPKI:0.00
PC:199b6     Total:15528      MisBP:0   MisRate:0.00%    MPKI:0.00
PC:190c8     Total:48639      MisBP:0   MisRate:0.00%    MPKI:0.00
PC:36b26     Total:323      MisBP:0   MisRate:0.00%    MPKI:0.00
PC:37732     Total:169      MisBP:0   MisRate:0.00%    MPKI:0.00
PC:6110c     Total:4      MisBP:0   MisRate:0.00%    MPKI:0.00
PC:199ba     Total:15528      MisBP:0   MisRate:0.00%    MPKI:0.00
PC:199ce     Total:135572      MisBP:0   MisRate:0.00%    MPKI:0.00
PC:42aa6     Total:342      MisBP:0   MisRate:0.00%    MPKI:0.00
PC:199bc     Total:15528      MisBP:0   MisRate:0.00%    MPKI:0.00
PC:2e232     Total:340      MisBP:0   MisRate:0.00%    MPKI:0.00
PC:42aa8     Total:1052      MisBP:0   MisRate:0.00%    MPKI:0.00
PC:3cb8a     Total:1474      MisBP:0   MisRate:0.00%    MPKI:0.00
PC:9d578     Total:219      MisBP:0   MisRate:0.00%    MPKI:0.00
PC:38024     Total:2348      MisBP:0   MisRate:0.00%    MPKI:0.00
PC:61110     Total:4      MisBP:0   MisRate:0.00%    MPKI:0.00
PC:199be     Total:15528      MisBP:0   MisRate:0.00%    MPKI:0.00
PC:37738     Total:169      MisBP:0   MisRate:0.00%    MPKI:0.00
PC:3cbac     Total:2366      MisBP:0   MisRate:0.00%    MPKI:0.00
PC:42ac6     Total:22      MisBP:0   MisRate:0.00%    MPKI:0.00
PC:3cba8     Total:2553      MisBP:0   MisRate:0.00%    MPKI:0.00
PC:38042     Total:2422      MisBP:0   MisRate:0.00%    MPKI:0.00
PC:37754     Total:31      MisBP:0   MisRate:0.00%    MPKI:0.00
PC:6112e     Total:4      MisBP:0   MisRate:0.00%    MPKI:0.00
PC:2e252     Total:309      MisBP:0   MisRate:0.00%    MPKI:0.00
PC:38044     Total:2427      MisBP:0   MisRate:0.00%    MPKI:0.00
PC:61130     Total:4      MisBP:0   MisRate:0.00%    MPKI:0.00
PC:2e254     Total:6039      MisBP:0   MisRate:0.00%    MPKI:0.00
PC:190f0     Total:15711      MisBP:0   MisRate:0.00%    MPKI:0.00
PC:42aca     Total:22      MisBP:0   MisRate:0.00%    MPKI:0.00
PC:2e250     Total:309      MisBP:0   MisRate:0.00%    MPKI:0.00
PC:38046     Total:2427      MisBP:0   MisRate:0.00%    MPKI:0.00
PC:37758     Total:5      MisBP:0   MisRate:0.00%    MPKI:0.00
PC:61132     Total:4      MisBP:0   MisRate:0.00%    MPKI:0.00
PC:199e0     Total:55784      MisBP:0   MisRate:0.00%    MPKI:0.00
PC:2e256     Total:6039      MisBP:0   MisRate:0.00%    MPKI:0.00
PC:42acc     Total:22      MisBP:0   MisRate:0.00%    MPKI:0.00
PC:3804a     Total:3066      MisBP:0   MisRate:0.00%    MPKI:0.00
PC:3775c     Total:5      MisBP:0   MisRate:0.00%    MPKI:0.00
PC:61136     Total:4      MisBP:0   MisRate:0.00%    MPKI:0.00
PC:199e4     Total:104353      MisBP:0   MisRate:0.00%    MPKI:0.00
PC:3803e     Total:2790      MisBP:0   MisRate:0.00%    MPKI:0.00
PC:190e0     Total:9704      MisBP:0   MisRate:0.00%    MPKI:0.00
PC:42aba     Total:93      MisBP:0   MisRate:0.00%    MPKI:0.00
PC:3cb9c     Total:1497      MisBP:0   MisRate:0.00%    MPKI:0.00
PC:3774a     Total:31      MisBP:0   MisRate:0.00%    MPKI:0.00
PC:61124     Total:4      MisBP:0   MisRate:0.00%    MPKI:0.00
PC:42abe     Total:93      MisBP:0   MisRate:0.00%    MPKI:0.00
PC:199d4     Total:135059      MisBP:0   MisRate:0.00%    MPKI:0.00
PC:2e24a     Total:309      MisBP:0   MisRate:0.00%    MPKI:0.00
PC:190e6     Total:4499      MisBP:0   MisRate:0.00%    MPKI:0.00
PC:42ac0     Total:22      MisBP:0   MisRate:0.00%    MPKI:0.00
PC:3cba2     Total:1497      MisBP:0   MisRate:0.00%    MPKI:0.00
PC:42aa0     Total:2204      MisBP:0   MisRate:0.00%    MPKI:0.00
PC:37750     Total:31      MisBP:0   MisRate:0.00%    MPKI:0.00
PC:6112a     Total:4      MisBP:0   MisRate:0.00%    MPKI:0.00
PC:199d8     Total:127080      MisBP:0   MisRate:0.00%    MPKI:0.00
PC:190ea     Total:15711      MisBP:0   MisRate:0.00%    MPKI:0.00
PC:42ac4     Total:22      MisBP:0   MisRate:0.00%    MPKI:0.00
PC:3cba6     Total:2553      MisBP:0   MisRate:0.00%    MPKI:0.00
PC:38040     Total:2422      MisBP:0   MisRate:0.00%    MPKI:0.00
PC:37752     Total:31      MisBP:0   MisRate:0.00%    MPKI:0.00
PC:6112c     Total:4      MisBP:0   MisRate:0.00%    MPKI:0.00
PC:199da     Total:127071      MisBP:0   MisRate:0.00%    MPKI:0.00
PC:619d4     Total:70      MisBP:0   MisRate:0.00%    MPKI:0.00
PC:37db8     Total:2175      MisBP:0   MisRate:0.00%    MPKI:0.00
PC:19752     Total:81110      MisBP:0   MisRate:0.00%    MPKI:0.00
PC:37ff2     Total:2786      MisBP:0   MisRate:0.00%    MPKI:0.00
PC:1998c     Total:15652      MisBP:0   MisRate:0.00%    MPKI:0.00
PC:42a78     Total:7592      MisBP:0   MisRate:0.00%    MPKI:0.00
PC:3cb5a     Total:25870      MisBP:0   MisRate:0.00%    MPKI:0.00
PC:619d0     Total:70      MisBP:0   MisRate:0.00%    MPKI:0.00
PC:37ff6     Total:2786      MisBP:0   MisRate:0.00%    MPKI:0.00
PC:2e206     Total:213      MisBP:0   MisRate:0.00%    MPKI:0.00
PC:190a2     Total:52209      MisBP:0   MisRate:0.00%    MPKI:0.00
PC:42a7c     Total:918      MisBP:0   MisRate:0.00%    MPKI:0.00
PC:61792     Total:22      MisBP:0   MisRate:0.00%    MPKI:0.00
PC:37ffa     Total:2794      MisBP:0   MisRate:0.00%    MPKI:0.00
PC:19994     Total:15652      MisBP:0   MisRate:0.00%    MPKI:0.00
PC:2e20a     Total:213      MisBP:0   MisRate:0.00%    MPKI:0.00
PC:42a80     Total:825      MisBP:0   MisRate:0.00%    MPKI:0.00
PC:619d8     Total:70      MisBP:0   MisRate:0.00%    MPKI:0.00
PC:37ffe     Total:2491      MisBP:0   MisRate:0.00%    MPKI:0.00
PC:19998     Total:15652      MisBP:0   MisRate:0.00%    MPKI:0.00
PC:2e20e     Total:372      MisBP:0   MisRate:0.00%    MPKI:0.00
PC:190aa     Total:45673      MisBP:0   MisRate:0.00%    MPKI:0.00
PC:42a84     Total:825      MisBP:0   MisRate:0.00%    MPKI:0.00
PC:19726     Total:83576      MisBP:0   MisRate:0.00%    MPKI:0.00
PC:37d7a     Total:7488      MisBP:0   MisRate:0.00%    MPKI:0.00
PC:19714     Total:24872      MisBP:0   MisRate:0.00%    MPKI:0.00
PC:37d7e     Total:5778      MisBP:0   MisRate:0.00%    MPKI:0.00
PC:19718     Total:24872      MisBP:0   MisRate:0.00%    MPKI:0.00
PC:37d82     Total:5342      MisBP:0   MisRate:0.00%    MPKI:0.00
PC:1971c     Total:23808      MisBP:0   MisRate:0.00%    MPKI:0.00
PC:1971e     Total:23808      MisBP:0   MisRate:0.00%    MPKI:0.00
PC:37d86     Total:4256      MisBP:0   MisRate:0.00%    MPKI:0.00
PC:19720     Total:23808      MisBP:0   MisRate:0.00%    MPKI:0.00
PC:37d88     Total:4278      MisBP:0   MisRate:0.00%    MPKI:0.00
PC:19722     Total:167207      MisBP:0   MisRate:0.00%    MPKI:0.00
PC:38002     Total:2491      MisBP:0   MisRate:0.00%    MPKI:0.00
PC:37d90     Total:3182      MisBP:0   MisRate:0.00%    MPKI:0.00
PC:1972a     Total:83574      MisBP:0   MisRate:0.00%    MPKI:0.00
PC:6176c     Total:22      MisBP:0   MisRate:0.00%    MPKI:0.00
PC:37d92     Total:3182      MisBP:0   MisRate:0.00%    MPKI:0.00
PC:1972c     Total:83574      MisBP:0   MisRate:0.00%    MPKI:0.00
PC:1972e     Total:82704      MisBP:0   MisRate:0.00%    MPKI:0.00
PC:6177a     Total:110      MisBP:0   MisRate:0.00%    MPKI:0.00
PC:1973a     Total:79148      MisBP:0   MisRate:0.00%    MPKI:0.00
PC:6177e     Total:22      MisBP:0   MisRate:0.00%    MPKI:0.00
PC:37da4     Total:2294      MisBP:0   MisRate:0.00%    MPKI:0.00
PC:199ae     Total:15528      MisBP:0   MisRate:0.00%    MPKI:0.00
PC:42a92     Total:450      MisBP:0   MisRate:0.00%    MPKI:0.00
PC:9d564     Total:219      MisBP:0   MisRate:0.00%    MPKI:0.00
PC:619ea     Total:70      MisBP:0   MisRate:0.00%    MPKI:0.00
PC:38010     Total:2506      MisBP:0   MisRate:0.00%    MPKI:0.00
PC:199aa     Total:15528      MisBP:0   MisRate:0.00%    MPKI:0.00
PC:42a96     Total:2230      MisBP:0   MisRate:0.00%    MPKI:0.00
PC:3cb78     Total:2233      MisBP:0   MisRate:0.00%    MPKI:0.00
PC:604f4     Total:8      MisBP:0   MisRate:0.00%    MPKI:0.00
PC:36b1a     Total:326      MisBP:0   MisRate:0.00%    MPKI:0.00
PC:38014     Total:2435      MisBP:0   MisRate:0.00%    MPKI:0.00
PC:61100     Total:4      MisBP:0   MisRate:0.00%    MPKI:0.00
PC:190b8     Total:52742      MisBP:0   MisRate:0.00%    MPKI:0.00
PC:190c0     Total:48639      MisBP:0   MisRate:0.00%    MPKI:0.00
PC:42a9a     Total:2223      MisBP:0   MisRate:0.00%    MPKI:0.00
PC:199b0     Total:15528      MisBP:0   MisRate:0.00%    MPKI:0.00
PC:2e226     Total:342      MisBP:0   MisRate:0.00%    MPKI:0.00
PC:42a9c     Total:2204      MisBP:0   MisRate:0.00%    MPKI:0.00
PC:3cb7e     Total:2633      MisBP:0   MisRate:0.00%    MPKI:0.00
PC:3772c     Total:169      MisBP:0   MisRate:0.00%    MPKI:0.00
PC:61106     Total:4      MisBP:0   MisRate:0.00%    MPKI:0.00
PC:199b4     Total:15528      MisBP:0   MisRate:0.00%    MPKI:0.00
PC:2e22a     Total:340      MisBP:0   MisRate:0.00%    MPKI:0.00
PC:38008     Total:2506      MisBP:0   MisRate:0.00%    MPKI:0.00
PC:37714     Total:100      MisBP:0   MisRate:0.00%    MPKI:0.00
PC:610ee     Total:4      MisBP:0   MisRate:0.00%    MPKI:0.00
PC:1999c     Total:15652      MisBP:0   MisRate:0.00%    MPKI:0.00
PC:2e212     Total:370      MisBP:0   MisRate:0.00%    MPKI:0.00
PC:1999e     Total:15651      MisBP:0   MisRate:0.00%    MPKI:0.00
PC:2e214     Total:370      MisBP:0   MisRate:0.00%    MPKI:0.00
PC:42a8a     Total:450      MisBP:0   MisRate:0.00%    MPKI:0.00
PC:3cb6c     Total:9733      MisBP:0   MisRate:0.00%    MPKI:0.00
PC:9d55c     Total:219      MisBP:0   MisRate:0.00%    MPKI:0.00
PC:619e2     Total:70      MisBP:0   MisRate:0.00%    MPKI:0.00
PC:3b08c     Total:21      MisBP:0   MisRate:0.00%    MPKI:0.00
PC:3771a     Total:138      MisBP:0   MisRate:0.00%    MPKI:0.00
PC:610f4     Total:4      MisBP:0   MisRate:0.00%    MPKI:0.00
PC:199a2     Total:15651      MisBP:0   MisRate:0.00%    MPKI:0.00
PC:2e218     Total:370      MisBP:0   MisRate:0.00%    MPKI:0.00
PC:42a8e     Total:450      MisBP:0   MisRate:0.00%    MPKI:0.00
PC:619e6     Total:70      MisBP:0   MisRate:0.00%    MPKI:0.00
PC:3800c     Total:2506      MisBP:0   MisRate:0.00%    MPKI:0.00
PC:3771e     Total:138      MisBP:0   MisRate:0.00%    MPKI:0.00
PC:610f8     Total:4      MisBP:0   MisRate:0.00%    MPKI:0.00
PC:199a6     Total:15651      MisBP:0   MisRate:0.00%    MPKI:0.00
PC:3bf70     Total:769696      MisBP:0   MisRate:0.00%    MPKI:0.00
PC:41ad4     Total:60      MisBP:0   MisRate:0.00%    MPKI:0.00
PC:2d25e     Total:21461      MisBP:0   MisRate:0.00%    MPKI:0.00
PC:189ec     Total:61292      MisBP:0   MisRate:0.00%    MPKI:0.00
PC:180fe     Total:10      MisBP:0   MisRate:0.00%    MPKI:0.00
PC:41ad8     Total:60      MisBP:0   MisRate:0.00%    MPKI:0.00
PC:2d262     Total:21461      MisBP:0   MisRate:0.00%    MPKI:0.00
PC:3bf58     Total:108643      MisBP:0   MisRate:0.00%    MPKI:0.00
PC:3c846     Total:3074      MisBP:0   MisRate:0.00%    MPKI:0.00
PC:12e6c     Total:3      MisBP:0   MisRate:0.00%    MPKI:0.00
PC:3bf68     Total:1540287      MisBP:0   MisRate:0.00%    MPKI:0.00
PC:276f2     Total:35      MisBP:0   MisRate:0.00%    MPKI:0.00
PC:180fa     Total:17      MisBP:0   MisRate:0.00%    MPKI:0.00
PC:276fa     Total:35      MisBP:0   MisRate:0.00%    MPKI:0.00
PC:3bf7e     Total:129988      MisBP:0   MisRate:0.00%    MPKI:0.00
PC:27708     Total:5017      MisBP:0   MisRate:0.00%    MPKI:0.00
PC:3bf82     Total:115808      MisBP:0   MisRate:0.00%    MPKI:0.00
PC:2770c     Total:5017      MisBP:0   MisRate:0.00%    MPKI:0.00
PC:3bf84     Total:115808      MisBP:0   MisRate:0.00%    MPKI:0.00
PC:2770e     Total:5017      MisBP:0   MisRate:0.00%    MPKI:0.00
PC:3bf86     Total:115808      MisBP:0   MisRate:0.00%    MPKI:0.00
PC:27712     Total:21      MisBP:0   MisRate:0.00%    MPKI:0.00
PC:3bf8a     Total:92740      MisBP:0   MisRate:0.00%    MPKI:0.00
PC:41ac8     Total:46      MisBP:0   MisRate:0.00%    MPKI:0.00
PC:19186     Total:2012      MisBP:0   MisRate:0.00%    MPKI:0.00
PC:42b60     Total:7      MisBP:0   MisRate:0.00%    MPKI:0.00
PC:3cc42     Total:4834      MisBP:0   MisRate:0.00%    MPKI:0.00
PC:411fc     Total:16584      MisBP:0   MisRate:0.00%    MPKI:0.00
PC:4123a     Total:849      MisBP:0   MisRate:0.00%    MPKI:0.00
PC:4124a     Total:15357      MisBP:0   MisRate:0.00%    MPKI:0.00
PC:41250     Total:15352      MisBP:0   MisRate:0.00%    MPKI:0.00
PC:4125c     Total:23702      MisBP:0   MisRate:0.00%    MPKI:0.00
PC:423b6     Total:45      MisBP:0   MisRate:0.00%    MPKI:0.00
PC:189dc     Total:639371      MisBP:0   MisRate:0.00%    MPKI:0.00
PC:180ee     Total:17      MisBP:0   MisRate:0.00%    MPKI:0.00
PC:27716     Total:21      MisBP:0   MisRate:0.00%    MPKI:0.00
PC:2d252     Total:11018      MisBP:0   MisRate:0.00%    MPKI:0.00
PC:41264     Total:23702      MisBP:0   MisRate:0.00%    MPKI:0.00
PC:189e0     Total:61292      MisBP:0   MisRate:0.00%    MPKI:0.00
PC:2d256     Total:10199      MisBP:0   MisRate:0.00%    MPKI:0.00
PC:423be     Total:57      MisBP:0   MisRate:0.00%    MPKI:0.00
PC:189e4     Total:61292      MisBP:0   MisRate:0.00%    MPKI:0.00
PC:180f6     Total:17      MisBP:0   MisRate:0.00%    MPKI:0.00
PC:41ad0     Total:60      MisBP:0   MisRate:0.00%    MPKI:0.00
PC:2d25a     Total:21461      MisBP:0   MisRate:0.00%    MPKI:0.00
PC:189e8     Total:61292      MisBP:0   MisRate:0.00%    MPKI:0.00
PC:18824     Total:184859      MisBP:0   MisRate:0.00%    MPKI:0.00
PC:19102     Total:15323      MisBP:0   MisRate:0.00%    MPKI:0.00
PC:2d978     Total:11      MisBP:0   MisRate:0.00%    MPKI:0.00
PC:2d982     Total:11      MisBP:0   MisRate:0.00%    MPKI:0.00
PC:421f8     Total:7      MisBP:0   MisRate:0.00%    MPKI:0.00
PC:41320     Total:27095      MisBP:0   MisRate:0.00%    MPKI:0.00
PC:2caaa     Total:46211      MisBP:0   MisRate:0.00%    MPKI:0.00
PC:19110     Total:16429      MisBP:0   MisRate:0.00%    MPKI:0.00
PC:61152     Total:7      MisBP:0   MisRate:0.00%    MPKI:0.00
PC:37778     Total:15      MisBP:0   MisRate:0.00%    MPKI:0.00
PC:42aec     Total:849      MisBP:0   MisRate:0.00%    MPKI:0.00
PC:2d988     Total:11      MisBP:0   MisRate:0.00%    MPKI:0.00
PC:2ca9c     Total:4184      MisBP:0   MisRate:0.00%    MPKI:0.00
PC:421fe     Total:7      MisBP:0   MisRate:0.00%    MPKI:0.00
PC:41326     Total:600      MisBP:0   MisRate:0.00%    MPKI:0.00
PC:2cab0     Total:9266      MisBP:0   MisRate:0.00%    MPKI:0.00
PC:61156     Total:7      MisBP:0   MisRate:0.00%    MPKI:0.00
PC:3777c     Total:15      MisBP:0   MisRate:0.00%    MPKI:0.00
PC:42af0     Total:826      MisBP:0   MisRate:0.00%    MPKI:0.00
PC:19116     Total:16451      MisBP:0   MisRate:0.00%    MPKI:0.00
PC:2d98c     Total:11      MisBP:0   MisRate:0.00%    MPKI:0.00
PC:6115e     Total:7      MisBP:0   MisRate:0.00%    MPKI:0.00
PC:37784     Total:39      MisBP:0   MisRate:0.00%    MPKI:0.00
PC:18a12     Total:50994      MisBP:0   MisRate:0.00%    MPKI:0.00
PC:423da     Total:28      MisBP:0   MisRate:0.00%    MPKI:0.00
PC:18a00     Total:50994      MisBP:0   MisRate:0.00%    MPKI:0.00
PC:18112     Total:10      MisBP:0   MisRate:0.00%    MPKI:0.00
PC:41aec     Total:45      MisBP:0   MisRate:0.00%    MPKI:0.00
PC:423e0     Total:28      MisBP:0   MisRate:0.00%    MPKI:0.00
PC:18a06     Total:50994      MisBP:0   MisRate:0.00%    MPKI:0.00
PC:18118     Total:2099      MisBP:0   MisRate:0.00%    MPKI:0.00
PC:2d27c     Total:20233      MisBP:0   MisRate:0.00%    MPKI:0.00
PC:4128e     Total:11607      MisBP:0   MisRate:0.00%    MPKI:0.00
PC:93466     Total:16      MisBP:0   MisRate:0.00%    MPKI:0.00
PC:423ec     Total:27      MisBP:0   MisRate:0.00%    MPKI:0.00
PC:19a74     Total:11433      MisBP:0   MisRate:0.00%    MPKI:0.00
PC:2d288     Total:138926      MisBP:0   MisRate:0.00%    MPKI:0.00
PC:423f0     Total:27      MisBP:0   MisRate:0.00%    MPKI:0.00
PC:18a16     Total:9259      MisBP:0   MisRate:0.00%    MPKI:0.00
PC:18128     Total:296      MisBP:0   MisRate:0.00%    MPKI:0.00
PC:41b02     Total:16      MisBP:0   MisRate:0.00%    MPKI:0.00
PC:4129e     Total:19003      MisBP:0   MisRate:0.00%    MPKI:0.00
PC:2ca28     Total:5624      MisBP:0   MisRate:0.00%    MPKI:0.00
PC:42464     Total:44      MisBP:0   MisRate:0.00%    MPKI:0.00
PC:18a8a     Total:924      MisBP:0   MisRate:0.00%    MPKI:0.00
PC:41312     Total:22603      MisBP:0   MisRate:0.00%    MPKI:0.00
PC:380b0     Total:1194      MisBP:0   MisRate:0.00%    MPKI:0.00
PC:19a42     Total:41323      MisBP:0   MisRate:0.00%    MPKI:0.00
PC:2e2b8     Total:2068      MisBP:0   MisRate:0.00%    MPKI:0.00
PC:19154     Total:15614      MisBP:0   MisRate:0.00%    MPKI:0.00
PC:3cc10     Total:9980      MisBP:0   MisRate:0.00%    MPKI:0.00
PC:19a44     Total:41323      MisBP:0   MisRate:0.00%    MPKI:0.00
PC:3cc12     Total:9980      MisBP:0   MisRate:0.00%    MPKI:0.00
PC:380ae     Total:1194      MisBP:0   MisRate:0.00%    MPKI:0.00
PC:2e2be     Total:2064      MisBP:0   MisRate:0.00%    MPKI:0.00
PC:1915a     Total:15591      MisBP:0   MisRate:0.00%    MPKI:0.00
PC:42b34     Total:622      MisBP:0   MisRate:0.00%    MPKI:0.00
PC:3cc16     Total:9980      MisBP:0   MisRate:0.00%    MPKI:0.00
PC:3cc0e     Total:9980      MisBP:0   MisRate:0.00%    MPKI:0.00
PC:19a4a     Total:41323      MisBP:0   MisRate:0.00%    MPKI:0.00
PC:42b36     Total:622      MisBP:0   MisRate:0.00%    MPKI:0.00
PC:3cc18     Total:9980      MisBP:0   MisRate:0.00%    MPKI:0.00
PC:19a4e     Total:41323      MisBP:0   MisRate:0.00%    MPKI:0.00
PC:2e2c4     Total:2022      MisBP:0   MisRate:0.00%    MPKI:0.00
PC:42b3a     Total:868      MisBP:0   MisRate:0.00%    MPKI:0.00
PC:19a50     Total:41287      MisBP:0   MisRate:0.00%    MPKI:0.00
PC:3cc1e     Total:8823      MisBP:0   MisRate:0.00%    MPKI:0.00
PC:380b8     Total:1626      MisBP:0   MisRate:0.00%    MPKI:0.00
PC:2e2c8     Total:2022      MisBP:0   MisRate:0.00%    MPKI:0.00
PC:42b20     Total:341      MisBP:0   MisRate:0.00%    MPKI:0.00
PC:19a2e     Total:14838      MisBP:0   MisRate:0.00%    MPKI:0.00
PC:19140     Total:44102      MisBP:0   MisRate:0.00%    MPKI:0.00
PC:42b1a     Total:365      MisBP:0   MisRate:0.00%    MPKI:0.00
PC:3cbfc     Total:9619      MisBP:0   MisRate:0.00%    MPKI:0.00
PC:19a32     Total:14838      MisBP:0   MisRate:0.00%    MPKI:0.00
PC:42b1e     Total:341      MisBP:0   MisRate:0.00%    MPKI:0.00
PC:61a74     Total:1      MisBP:0   MisRate:0.00%    MPKI:0.00
PC:3809a     Total:1185      MisBP:0   MisRate:0.00%    MPKI:0.00
PC:19a34     Total:14838      MisBP:0   MisRate:0.00%    MPKI:0.00
PC:2e2aa     Total:1487      MisBP:0   MisRate:0.00%    MPKI:0.00
PC:19146     Total:36542      MisBP:0   MisRate:0.00%    MPKI:0.00
PC:19164     Total:15591      MisBP:0   MisRate:0.00%    MPKI:0.00
PC:3cc02     Total:9309      MisBP:0   MisRate:0.00%    MPKI:0.00
PC:19a36     Total:14838      MisBP:0   MisRate:0.00%    MPKI:0.00
PC:19a38     Total:95112      MisBP:0   MisRate:0.00%    MPKI:0.00
PC:42b24     Total:341      MisBP:0   MisRate:0.00%    MPKI:0.00
PC:3cc06     Total:14799      MisBP:0   MisRate:0.00%    MPKI:0.00
PC:19a3c     Total:47543      MisBP:0   MisRate:0.00%    MPKI:0.00
PC:3cc0a     Total:9980      MisBP:0   MisRate:0.00%    MPKI:0.00
PC:380a6     Total:1057      MisBP:0   MisRate:0.00%    MPKI:0.00
PC:19a40     Total:41323      MisBP:0   MisRate:0.00%    MPKI:0.00
PC:42b2c     Total:969      MisBP:0   MisRate:0.00%    MPKI:0.00
PC:611c2     Total:20      MisBP:0   MisRate:0.00%    MPKI:0.00
PC:2e2e0     Total:5561      MisBP:0   MisRate:0.00%    MPKI:0.00
PC:1917c     Total:15438      MisBP:0   MisRate:0.00%    MPKI:0.00
PC:42b56     Total:6      MisBP:0   MisRate:0.00%    MPKI:0.00
PC:3cc38     Total:5707      MisBP:0   MisRate:0.00%    MPKI:0.00
PC:380d2     Total:607      MisBP:0   MisRate:0.00%    MPKI:0.00
PC:611be     Total:24      MisBP:0   MisRate:0.00%    MPKI:0.00
PC:2e2e2     Total:5561      MisBP:0   MisRate:0.00%    MPKI:0.00
PC:19a6e     Total:11546      MisBP:0   MisRate:0.00%    MPKI:0.00
PC:42b5a     Total:7      MisBP:0   MisRate:0.00%    MPKI:0.00
PC:3cc3c     Total:5707      MisBP:0   MisRate:0.00%    MPKI:0.00
PC:380d6     Total:607      MisBP:0   MisRate:0.00%    MPKI:0.00
PC:19a6a     Total:44136      MisBP:0   MisRate:0.00%    MPKI:0.00
PC:19a70     Total:11463      MisBP:0   MisRate:0.00%    MPKI:0.00
PC:2e2e6     Total:5556      MisBP:0   MisRate:0.00%    MPKI:0.00
PC:19182     Total:2012      MisBP:0   MisRate:0.00%    MPKI:0.00
PC:42b5c     Total:7      MisBP:0   MisRate:0.00%    MPKI:0.00
PC:19a72     Total:11433      MisBP:0   MisRate:0.00%    MPKI:0.00
PC:2e2e8     Total:5556      MisBP:0   MisRate:0.00%    MPKI:0.00
PC:42b5e     Total:7      MisBP:0   MisRate:0.00%    MPKI:0.00
PC:3cc40     Total:4834      MisBP:0   MisRate:0.00%    MPKI:0.00
PC:380da     Total:605      MisBP:0   MisRate:0.00%    MPKI:0.00
PC:611c6     Total:20      MisBP:0   MisRate:0.00%    MPKI:0.00
PC:611ae     Total:24      MisBP:0   MisRate:0.00%    MPKI:0.00
PC:42b3e     Total:761      MisBP:0   MisRate:0.00%    MPKI:0.00
PC:3cc20     Total:8822      MisBP:0   MisRate:0.00%    MPKI:0.00
PC:3cc22     Total:95270      MisBP:0   MisRate:0.00%    MPKI:0.00
PC:380bc     Total:1626      MisBP:0   MisRate:0.00%    MPKI:0.00
PC:19a56     Total:5580      MisBP:0   MisRate:0.00%    MPKI:0.00
PC:42b42     Total:826      MisBP:0   MisRate:0.00%    MPKI:0.00
PC:380c0     Total:1496      MisBP:0   MisRate:0.00%    MPKI:0.00
PC:611ac     Total:144      MisBP:0   MisRate:0.00%    MPKI:0.00
PC:19a5a     Total:21126      MisBP:0   MisRate:0.00%    MPKI:0.00
PC:2e2d0     Total:2046      MisBP:0   MisRate:0.00%    MPKI:0.00
PC:380c2     Total:1496      MisBP:0   MisRate:0.00%    MPKI:0.00
PC:42af8     Total:76      MisBP:0   MisRate:0.00%    MPKI:0.00
PC:19a5c     Total:21125      MisBP:0   MisRate:0.00%    MPKI:0.00
PC:42b48     Total:6      MisBP:0   MisRate:0.00%    MPKI:0.00
PC:2e2d4     Total:2046      MisBP:0   MisRate:0.00%    MPKI:0.00
PC:3cc2c     Total:54564      MisBP:0   MisRate:0.00%    MPKI:0.00
PC:19a62     Total:19595      MisBP:0   MisRate:0.00%    MPKI:0.00
PC:19a66     Total:44136      MisBP:0   MisRate:0.00%    MPKI:0.00
PC:19178     Total:15438      MisBP:0   MisRate:0.00%    MPKI:0.00
PC:42b52     Total:6      MisBP:0   MisRate:0.00%    MPKI:0.00
PC:3cc34     Total:5707      MisBP:0   MisRate:0.00%    MPKI:0.00
PC:380d0     Total:607      MisBP:0   MisRate:0.00%    MPKI:0.00
PC:1c5ba     Total:13      MisBP:0   MisRate:0.00%    MPKI:0.00
PC:1c5a0     Total:17      MisBP:0   MisRate:0.00%    MPKI:0.00
PC:3ac0a     Total:682      MisBP:0   MisRate:0.00%    MPKI:0.00
PC:3ac0c     Total:681      MisBP:0   MisRate:0.00%    MPKI:0.00
PC:1c5a6     Total:17      MisBP:0   MisRate:0.00%    MPKI:0.00
PC:1c5aa     Total:17      MisBP:0   MisRate:0.00%    MPKI:0.00
PC:3ac12     Total:681      MisBP:0   MisRate:0.00%    MPKI:0.00
PC:3ac14     Total:681      MisBP:0   MisRate:0.00%    MPKI:0.00
PC:1c5b2     Total:16      MisBP:0   MisRate:0.00%    MPKI:0.00
PC:3ac1c     Total:572      MisBP:0   MisRate:0.00%    MPKI:0.00
PC:1c5b6     Total:16      MisBP:0   MisRate:0.00%    MPKI:0.00
PC:3ac20     Total:572      MisBP:0   MisRate:0.00%    MPKI:0.00
PC:3ac06     Total:682      MisBP:0   MisRate:0.00%    MPKI:0.00
PC:1c5be     Total:13      MisBP:0   MisRate:0.00%    MPKI:0.00
PC:3ae0a     Total:106      MisBP:0   MisRate:0.00%    MPKI:0.00
PC:1c7a4     Total:81519      MisBP:0   MisRate:0.00%    MPKI:0.00
PC:47fb2     Total:269      MisBP:0   MisRate:0.00%    MPKI:0.00
PC:3373c     Total:67      MisBP:0   MisRate:0.00%    MPKI:0.00
PC:3eee2     Total:277      MisBP:0   MisRate:0.00%    MPKI:0.00
PC:15508     Total:152696      MisBP:0   MisRate:0.00%    MPKI:0.00
PC:3e5f4     Total:2      MisBP:0   MisRate:0.00%    MPKI:0.00
PC:84c7e     Total:452      MisBP:0   MisRate:0.00%    MPKI:0.00
PC:14f08     Total:53393      MisBP:0   MisRate:0.00%    MPKI:0.00
PC:1c58c     Total:864      MisBP:0   MisRate:0.00%    MPKI:0.00
PC:14ea0     Total:175376      MisBP:0   MisRate:0.00%    MPKI:0.00
PC:3e87a     Total:51      MisBP:0   MisRate:0.00%    MPKI:0.00
PC:3abe4     Total:754      MisBP:0   MisRate:0.00%    MPKI:0.00
PC:1c57e     Total:868      MisBP:0   MisRate:0.00%    MPKI:0.00
PC:3abe8     Total:754      MisBP:0   MisRate:0.00%    MPKI:0.00
PC:1c582     Total:868      MisBP:0   MisRate:0.00%    MPKI:0.00
PC:3abea     Total:754      MisBP:0   MisRate:0.00%    MPKI:0.00
PC:1c584     Total:867      MisBP:0   MisRate:0.00%    MPKI:0.00
PC:3abee     Total:747      MisBP:0   MisRate:0.00%    MPKI:0.00
PC:1c588     Total:864      MisBP:0   MisRate:0.00%    MPKI:0.00
PC:3abf2     Total:749      MisBP:0   MisRate:0.00%    MPKI:0.00
PC:3e8e2     Total:29124      MisBP:0   MisRate:0.00%    MPKI:0.00
PC:3abf4     Total:748      MisBP:0   MisRate:0.00%    MPKI:0.00
PC:1c58e     Total:863      MisBP:0   MisRate:0.00%    MPKI:0.00
PC:1c590     Total:862      MisBP:0   MisRate:0.00%    MPKI:0.00
PC:3abf8     Total:748      MisBP:0   MisRate:0.00%    MPKI:0.00
PC:1c592     Total:859      MisBP:0   MisRate:0.00%    MPKI:0.00
PC:3abfc     Total:733      MisBP:0   MisRate:0.00%    MPKI:0.00
PC:1c596     Total:759      MisBP:0   MisRate:0.00%    MPKI:0.00
PC:1c59a     Total:759      MisBP:0   MisRate:0.00%    MPKI:0.00
PC:3ac02     Total:682      MisBP:0   MisRate:0.00%    MPKI:0.00
PC:1c59c     Total:758      MisBP:0   MisRate:0.00%    MPKI:0.00
PC:3b036     Total:16      MisBP:0   MisRate:0.00%    MPKI:0.00
PC:1c9be     Total:39858      MisBP:0   MisRate:0.00%    MPKI:0.00
PC:3b026     Total:89      MisBP:0   MisRate:0.00%    MPKI:0.00
PC:1c9c0     Total:39723      MisBP:0   MisRate:0.00%    MPKI:0.00
PC:31236     Total:12      MisBP:0   MisRate:0.00%    MPKI:0.00
PC:3b02a     Total:205      MisBP:0   MisRate:0.00%    MPKI:0.00
PC:1c9c4     Total:39722      MisBP:0   MisRate:0.00%    MPKI:0.00
PC:3123a     Total:12      MisBP:0   MisRate:0.00%    MPKI:0.00
PC:3b030     Total:174      MisBP:0   MisRate:0.00%    MPKI:0.00
PC:1c9ca     Total:205      MisBP:0   MisRate:0.00%    MPKI:0.00
PC:31240     Total:7      MisBP:0   MisRate:0.00%    MPKI:0.00
PC:1c9cc     Total:205      MisBP:0   MisRate:0.00%    MPKI:0.00
PC:3b024     Total:1      MisBP:0   MisRate:0.00%    MPKI:0.00
PC:1c9d0     Total:205      MisBP:0   MisRate:0.00%    MPKI:0.00
PC:31246     Total:7      MisBP:0   MisRate:0.00%    MPKI:0.00
PC:1c9d2     Total:2080      MisBP:0   MisRate:0.00%    MPKI:0.00
PC:31248     Total:7      MisBP:0   MisRate:0.00%    MPKI:0.00
PC:1c9da     Total:2275      MisBP:0   MisRate:0.00%    MPKI:0.00
PC:31250     Total:7      MisBP:0   MisRate:0.00%    MPKI:0.00
PC:3b056     Total:4      MisBP:0   MisRate:0.00%    MPKI:0.00
PC:1c9f0     Total:1      MisBP:0   MisRate:0.00%    MPKI:0.00
PC:1c9fa     Total:39613      MisBP:0   MisRate:0.00%    MPKI:0.00
PC:31270     Total:7      MisBP:0   MisRate:0.00%    MPKI:0.00
PC:3b010     Total:9      MisBP:0   MisRate:0.00%    MPKI:0.00
PC:47fb8     Total:134      MisBP:0   MisRate:0.00%    MPKI:0.00
PC:33742     Total:59      MisBP:0   MisRate:0.00%    MPKI:0.00
PC:3ef00     Total:222      MisBP:0   MisRate:0.00%    MPKI:0.00
PC:15526     Total:149367      MisBP:0   MisRate:0.00%    MPKI:0.00
PC:15536     Total:146177      MisBP:0   MisRate:0.00%    MPKI:0.00
PC:84cac     Total:446      MisBP:0   MisRate:0.00%    MPKI:0.00
PC:3b004     Total:9      MisBP:0   MisRate:0.00%    MPKI:0.00
PC:1c99e     Total:4      MisBP:0   MisRate:0.00%    MPKI:0.00
PC:31214     Total:9      MisBP:0   MisRate:0.00%    MPKI:0.00
PC:1c9a6     Total:4      MisBP:0   MisRate:0.00%    MPKI:0.00
PC:3121c     Total:12      MisBP:0   MisRate:0.00%    MPKI:0.00
PC:15ff2     Total:3751      MisBP:0   MisRate:0.00%    MPKI:0.00
PC:1c9aa     Total:4      MisBP:0   MisRate:0.00%    MPKI:0.00
PC:31220     Total:12      MisBP:0   MisRate:0.00%    MPKI:0.00
PC:3b018     Total:2      MisBP:0   MisRate:0.00%    MPKI:0.00
PC:1c9b2     Total:39896      MisBP:0   MisRate:0.00%    MPKI:0.00
PC:1c9b6     Total:39891      MisBP:0   MisRate:0.00%    MPKI:0.00
PC:3b01e     Total:2      MisBP:0   MisRate:0.00%    MPKI:0.00
PC:1c9b8     Total:39888      MisBP:0   MisRate:0.00%    MPKI:0.00
PC:3122e     Total:12      MisBP:0   MisRate:0.00%    MPKI:0.00
PC:3b020     Total:2      MisBP:0   MisRate:0.00%    MPKI:0.00
PC:1c9ba     Total:39860      MisBP:0   MisRate:0.00%    MPKI:0.00
PC:15ea8     Total:39516      MisBP:0   MisRate:0.00%    MPKI:0.00
PC:3e712     Total:34320      MisBP:0   MisRate:0.00%    MPKI:0.00
PC:1b548     Total:38477      MisBP:0   MisRate:0.00%    MPKI:0.00
PC:2fdbe     Total:942      MisBP:0   MisRate:0.00%    MPKI:0.00
PC:3f86e     Total:1582      MisBP:0   MisRate:0.00%    MPKI:0.00
PC:155a6     Total:40136      MisBP:0   MisRate:0.00%    MPKI:0.00
PC:3ef80     Total:57      MisBP:0   MisRate:0.00%    MPKI:0.00
PC:3e71c     Total:34316      MisBP:0   MisRate:0.00%    MPKI:0.00
PC:3f874     Total:1577      MisBP:0   MisRate:0.00%    MPKI:0.00
PC:15e9a     Total:38800      MisBP:0   MisRate:0.00%    MPKI:0.00
PC:1b554     Total:38476      MisBP:0   MisRate:0.00%    MPKI:0.00
PC:2fdca     Total:345      MisBP:0   MisRate:0.00%    MPKI:0.00
PC:1b53e     Total:858      MisBP:0   MisRate:0.00%    MPKI:0.00
PC:155ba     Total:115279      MisBP:0   MisRate:0.00%    MPKI:0.00
PC:3ef94     Total:57      MisBP:0   MisRate:0.00%    MPKI:0.00
PC:1b562     Total:38476      MisBP:0   MisRate:0.00%    MPKI:0.00
PC:2fdd8     Total:653      MisBP:0   MisRate:0.00%    MPKI:0.00
PC:3e764     Total:7848      MisBP:0   MisRate:0.00%    MPKI:0.00
PC:3f8ba     Total:44      MisBP:0   MisRate:0.00%    MPKI:0.00
PC:15ee0     Total:35073      MisBP:0   MisRate:0.00%    MPKI:0.00
PC:14e40     Total:36715      MisBP:0   MisRate:0.00%    MPKI:0.00
PC:3e81a     Total:22448      MisBP:0   MisRate:0.00%    MPKI:0.00
PC:14e44     Total:36715      MisBP:0   MisRate:0.00%    MPKI:0.00
PC:1b84c     Total:23699      MisBP:0   MisRate:0.00%    MPKI:0.00
PC:1911e     Total:16166      MisBP:0   MisRate:0.00%    MPKI:0.00
PC:2d994     Total:11      MisBP:0   MisRate:0.00%    MPKI:0.00
PC:18830     Total:16980      MisBP:0   MisRate:0.00%    MPKI:0.00
PC:4220a     Total:43      MisBP:0   MisRate:0.00%    MPKI:0.00
PC:2d996     Total:11      MisBP:0   MisRate:0.00%    MPKI:0.00
PC:41332     Total:592      MisBP:0   MisRate:0.00%    MPKI:0.00
PC:2cabc     Total:7      MisBP:0   MisRate:0.00%    MPKI:0.00
PC:37788     Total:30      MisBP:0   MisRate:0.00%    MPKI:0.00
PC:42afc     Total:76      MisBP:0   MisRate:0.00%    MPKI:0.00
PC:18834     Total:16966      MisBP:0   MisRate:0.00%    MPKI:0.00
PC:4220e     Total:36      MisBP:0   MisRate:0.00%    MPKI:0.00
PC:3e81e     Total:22448      MisBP:0   MisRate:0.00%    MPKI:0.00
PC:300c2     Total:12      MisBP:0   MisRate:0.00%    MPKI:0.00
PC:1b870     Total:13874      MisBP:0   MisRate:0.00%    MPKI:0.00
PC:300e6     Total:5      MisBP:0   MisRate:0.00%    MPKI:0.00
PC:1b876     Total:13874      MisBP:0   MisRate:0.00%    MPKI:0.00
PC:300ec     Total:5      MisBP:0   MisRate:0.00%    MPKI:0.00
PC:41338     Total:258      MisBP:0   MisRate:0.00%    MPKI:0.00
PC:2cac2     Total:6      MisBP:0   MisRate:0.00%    MPKI:0.00
PC:3f85a     Total:1271      MisBP:0   MisRate:0.00%    MPKI:0.00
PC:15e80     Total:34930      MisBP:0   MisRate:0.00%    MPKI:0.00
PC:1b53a     Total:858      MisBP:0   MisRate:0.00%    MPKI:0.00
PC:33730     Total:32      MisBP:0   MisRate:0.00%    MPKI:0.00
PC:16030     Total:2829      MisBP:0   MisRate:0.00%    MPKI:0.00
PC:15742     Total:96617      MisBP:0   MisRate:0.00%    MPKI:0.00
PC:3f11c     Total:14      MisBP:0   MisRate:0.00%    MPKI:0.00
PC:14ede     Total:181414      MisBP:0   MisRate:0.00%    MPKI:0.00
PC:3e8b8     Total:14886      MisBP:0   MisRate:0.00%    MPKI:0.00
PC:47fa2     Total:961      MisBP:0   MisRate:0.00%    MPKI:0.00
PC:3372c     Total:48      MisBP:0   MisRate:0.00%    MPKI:0.00
PC:32a96     Total:42      MisBP:0   MisRate:0.00%    MPKI:0.00
PC:14ef8     Total:58177      MisBP:0   MisRate:0.00%    MPKI:0.00
PC:3e8d2     Total:14713      MisBP:0   MisRate:0.00%    MPKI:0.00
PC:47fa6     Total:961      MisBP:0   MisRate:0.00%    MPKI:0.00
PC:3fa0a     Total:842      MisBP:0   MisRate:0.00%    MPKI:0.00
PC:32a9a     Total:42      MisBP:0   MisRate:0.00%    MPKI:0.00
PC:14efc     Total:58176      MisBP:0   MisRate:0.00%    MPKI:0.00
PC:3e8d6     Total:3424      MisBP:0   MisRate:0.00%    MPKI:0.00
PC:47fac     Total:135      MisBP:0   MisRate:0.00%    MPKI:0.00
PC:33736     Total:7      MisBP:0   MisRate:0.00%    MPKI:0.00
PC:15502     Total:152714      MisBP:0   MisRate:0.00%    MPKI:0.00
PC:32aa0     Total:42      MisBP:0   MisRate:0.00%    MPKI:0.00
PC:14f02     Total:53393      MisBP:0   MisRate:0.00%    MPKI:0.00
PC:3e8dc     Total:29124      MisBP:0   MisRate:0.00%    MPKI:0.00
PC:3f9cc     Total:1067      MisBP:0   MisRate:0.00%    MPKI:0.00
PC:15736     Total:103247      MisBP:0   MisRate:0.00%    MPKI:0.00
PC:15f9e     Total:4023      MisBP:0   MisRate:0.00%    MPKI:0.00
PC:3e830     Total:33666      MisBP:0   MisRate:0.00%    MPKI:0.00
PC:3e83c     Total:7734      MisBP:0   MisRate:0.00%    MPKI:0.00
PC:47f7c     Total:2129      MisBP:0   MisRate:0.00%    MPKI:0.00
PC:33706     Total:49      MisBP:0   MisRate:0.00%    MPKI:0.00
PC:3eeac     Total:121      MisBP:0   MisRate:0.00%    MPKI:0.00
PC:154d2     Total:695      MisBP:0   MisRate:0.00%    MPKI:0.00
PC:32a70     Total:190      MisBP:0   MisRate:0.00%    MPKI:0.00
PC:3f9fe     Total:699      MisBP:0   MisRate:0.00%    MPKI:0.00
PC:16024     Total:2832      MisBP:0   MisRate:0.00%    MPKI:0.00
PC:2e25a     Total:6282      MisBP:0   MisRate:0.00%    MPKI:0.00
PC:3f110     Total:20      MisBP:0   MisRate:0.00%    MPKI:0.00
PC:14ed2     Total:53677      MisBP:0   MisRate:0.00%    MPKI:0.00
PC:3e8ac     Total:781      MisBP:0   MisRate:0.00%    MPKI:0.00
PC:47f88     Total:2414      MisBP:0   MisRate:0.00%    MPKI:0.00
PC:5c7fe     Total:2      MisBP:0   MisRate:0.00%    MPKI:0.00
PC:3eeb8     Total:59      MisBP:0   MisRate:0.00%    MPKI:0.00
PC:154de     Total:172152      MisBP:0   MisRate:0.00%    MPKI:0.00
PC:3e5ca     Total:122      MisBP:0   MisRate:0.00%    MPKI:0.00
PC:84c54     Total:819      MisBP:0   MisRate:0.00%    MPKI:0.00
PC:32a7c     Total:149      MisBP:0   MisRate:0.00%    MPKI:0.00
PC:402de     Total:18478      MisBP:0   MisRate:0.00%    MPKI:0.00
PC:168dc     Total:9741      MisBP:0   MisRate:0.00%    MPKI:0.00
PC:402b6     Total:14432      MisBP:0   MisRate:0.00%    MPKI:0.00
PC:168fa     Total:7641      MisBP:0   MisRate:0.00%    MPKI:0.00
PC:402d4     Total:12953      MisBP:0   MisRate:0.00%    MPKI:0.00
PC:168fc     Total:7641      MisBP:0   MisRate:0.00%    MPKI:0.00
PC:402d6     Total:12953      MisBP:0   MisRate:0.00%    MPKI:0.00
PC:168fe     Total:7641      MisBP:0   MisRate:0.00%    MPKI:0.00
PC:402d8     Total:12951      MisBP:0   MisRate:0.00%    MPKI:0.00
PC:16900     Total:6977      MisBP:0   MisRate:0.00%    MPKI:0.00
PC:402da     Total:12951      MisBP:0   MisRate:0.00%    MPKI:0.00
PC:16904     Total:6977      MisBP:0   MisRate:0.00%    MPKI:0.00
PC:402ae     Total:18554      MisBP:0   MisRate:0.00%    MPKI:0.00
PC:402e0     Total:18478      MisBP:0   MisRate:0.00%    MPKI:0.00
PC:16908     Total:6977      MisBP:0   MisRate:0.00%    MPKI:0.00
PC:402e2     Total:18455      MisBP:0   MisRate:0.00%    MPKI:0.00
PC:402e8     Total:310      MisBP:0   MisRate:0.00%    MPKI:0.00
PC:402ec     Total:310      MisBP:0   MisRate:0.00%    MPKI:0.00
PC:16916     Total:6976      MisBP:0   MisRate:0.00%    MPKI:0.00
PC:402f0     Total:310      MisBP:0   MisRate:0.00%    MPKI:0.00
PC:1691a     Total:6209      MisBP:0   MisRate:0.00%    MPKI:0.00
PC:402f4     Total:310      MisBP:0   MisRate:0.00%    MPKI:0.00
PC:1691e     Total:6459      MisBP:0   MisRate:0.00%    MPKI:0.00
PC:3ede6     Total:8632      MisBP:0   MisRate:0.00%    MPKI:0.00
PC:3ed70     Total:17      MisBP:0   MisRate:0.00%    MPKI:0.00
PC:164f0     Total:24797      MisBP:0   MisRate:0.00%    MPKI:0.00
PC:16518     Total:18239      MisBP:0   MisRate:0.00%    MPKI:0.00
PC:3eda0     Total:9537      MisBP:0   MisRate:0.00%    MPKI:0.00
PC:3ff00     Total:103      MisBP:0   MisRate:0.00%    MPKI:0.00
PC:3ff0c     Total:103      MisBP:0   MisRate:0.00%    MPKI:0.00
PC:16532     Total:14847      MisBP:0   MisRate:0.00%    MPKI:0.00
PC:3ff28     Total:98      MisBP:0   MisRate:0.00%    MPKI:0.00
PC:1654e     Total:13259      MisBP:0   MisRate:0.00%    MPKI:0.00
PC:16558     Total:12257      MisBP:0   MisRate:0.00%    MPKI:0.00
PC:3ede0     Total:8863      MisBP:0   MisRate:0.00%    MPKI:0.00
PC:402f8     Total:301      MisBP:0   MisRate:0.00%    MPKI:0.00
PC:40254     Total:247038      MisBP:0   MisRate:0.00%    MPKI:0.00
PC:40258     Total:24611      MisBP:0   MisRate:0.00%    MPKI:0.00
PC:4025c     Total:24611      MisBP:0   MisRate:0.00%    MPKI:0.00
PC:1689a     Total:27      MisBP:0   MisRate:0.00%    MPKI:0.00
PC:40274     Total:24261      MisBP:0   MisRate:0.00%    MPKI:0.00
PC:168a0     Total:23      MisBP:0   MisRate:0.00%    MPKI:0.00
PC:4027a     Total:24253      MisBP:0   MisRate:0.00%    MPKI:0.00
PC:40286     Total:19156      MisBP:0   MisRate:0.00%    MPKI:0.00
PC:168b2     Total:23      MisBP:0   MisRate:0.00%    MPKI:0.00
PC:168d4     Total:10085      MisBP:0   MisRate:0.00%    MPKI:0.00
PC:41930     Total:486      MisBP:0   MisRate:0.00%    MPKI:0.00
PC:17f48     Total:99783      MisBP:0   MisRate:0.00%    MPKI:0.00
PC:16df8     Total:1208      MisBP:0   MisRate:0.00%    MPKI:0.00
PC:407d2     Total:39941      MisBP:0   MisRate:0.00%    MPKI:0.00
PC:3f5f6     Total:2110      MisBP:0   MisRate:0.00%    MPKI:0.00
PC:15c1c     Total:3282      MisBP:0   MisRate:0.00%    MPKI:0.00
PC:929aa     Total:9      MisBP:0   MisRate:0.00%    MPKI:0.00
PC:16e00     Total:1095      MisBP:0   MisRate:0.00%    MPKI:0.00
PC:407da     Total:51837      MisBP:0   MisRate:0.00%    MPKI:0.00
PC:3f5fe     Total:2109      MisBP:0   MisRate:0.00%    MPKI:0.00
PC:15c24     Total:3282      MisBP:0   MisRate:0.00%    MPKI:0.00
PC:929b2     Total:9      MisBP:0   MisRate:0.00%    MPKI:0.00
PC:41922     Total:777      MisBP:0   MisRate:0.00%    MPKI:0.00
PC:17f56     Total:94490      MisBP:0   MisRate:0.00%    MPKI:0.00
PC:16e04     Total:1095      MisBP:0   MisRate:0.00%    MPKI:0.00
PC:407de     Total:51837      MisBP:0   MisRate:0.00%    MPKI:0.00
PC:3f602     Total:1955      MisBP:0   MisRate:0.00%    MPKI:0.00
PC:929b6     Total:9      MisBP:0   MisRate:0.00%    MPKI:0.00
PC:407e4     Total:51735      MisBP:0   MisRate:0.00%    MPKI:0.00
PC:407e8     Total:31176      MisBP:0   MisRate:0.00%    MPKI:0.00
PC:15c32     Total:3282      MisBP:0   MisRate:0.00%    MPKI:0.00
PC:929c0     Total:8      MisBP:0   MisRate:0.00%    MPKI:0.00
PC:407ec     Total:31174      MisBP:0   MisRate:0.00%    MPKI:0.00
PC:407c0     Total:15254      MisBP:0   MisRate:0.00%    MPKI:0.00
PC:16922     Total:6459      MisBP:0   MisRate:0.00%    MPKI:0.00
PC:402fc     Total:301      MisBP:0   MisRate:0.00%    MPKI:0.00
PC:16dd0     Total:1223      MisBP:0   MisRate:0.00%    MPKI:0.00
PC:407aa     Total:15863      MisBP:0   MisRate:0.00%    MPKI:0.00
PC:407b2     Total:16261      MisBP:0   MisRate:0.00%    MPKI:0.00
PC:9298a     Total:10      MisBP:0   MisRate:0.00%    MPKI:0.00
PC:17f2c     Total:23816      MisBP:0   MisRate:0.00%    MPKI:0.00
PC:407b8     Total:16248      MisBP:0   MisRate:0.00%    MPKI:0.00
PC:92990     Total:10      MisBP:0   MisRate:0.00%    MPKI:0.00
PC:407bc     Total:16248      MisBP:0   MisRate:0.00%    MPKI:0.00
PC:16de6     Total:1216      MisBP:0   MisRate:0.00%    MPKI:0.00
PC:92124     Total:12085      MisBP:0   MisRate:0.00%    MPKI:0.00
PC:15c0a     Total:13131      MisBP:0   MisRate:0.00%    MPKI:0.00
PC:92998     Total:10      MisBP:0   MisRate:0.00%    MPKI:0.00
PC:17f3c     Total:22710      MisBP:0   MisRate:0.00%    MPKI:0.00
PC:16dea     Total:1216      MisBP:0   MisRate:0.00%    MPKI:0.00
PC:407c4     Total:15254      MisBP:0   MisRate:0.00%    MPKI:0.00
PC:16dee     Total:1216      MisBP:0   MisRate:0.00%    MPKI:0.00
PC:407c8     Total:15247      MisBP:0   MisRate:0.00%    MPKI:0.00
PC:15c12     Total:3352      MisBP:0   MisRate:0.00%    MPKI:0.00
PC:929a0     Total:10      MisBP:0   MisRate:0.00%    MPKI:0.00
PC:17f44     Total:20365      MisBP:0   MisRate:0.00%    MPKI:0.00
PC:39b14     Total:9      MisBP:0   MisRate:0.00%    MPKI:0.00
PC:2875a     Total:62121      MisBP:0   MisRate:0.00%    MPKI:0.00
PC:3cfd2     Total:13134      MisBP:0   MisRate:0.00%    MPKI:0.00
PC:3cfde     Total:53086      MisBP:0   MisRate:0.00%    MPKI:0.00
PC:52142     Total:5      MisBP:0   MisRate:0.00%    MPKI:0.00
PC:28768     Total:61913      MisBP:0   MisRate:0.00%    MPKI:0.00
PC:1b4a0     Total:407694      MisBP:0   MisRate:0.00%    MPKI:0.00
PC:2fd16     Total:89356      MisBP:0   MisRate:0.00%    MPKI:0.00
PC:9f064     Total:89      MisBP:0   MisRate:0.00%    MPKI:0.00
PC:39b10     Total:11      MisBP:0   MisRate:0.00%    MPKI:0.00
PC:1b4aa     Total:50043      MisBP:0   MisRate:0.00%    MPKI:0.00
PC:2fd20     Total:92515      MisBP:0   MisRate:0.00%    MPKI:0.00
PC:28758     Total:62180      MisBP:0   MisRate:0.00%    MPKI:0.00
PC:2529e     Total:715      MisBP:0   MisRate:0.00%    MPKI:0.00
PC:1b4ae     Total:50043      MisBP:0   MisRate:0.00%    MPKI:0.00
PC:2fd24     Total:92511      MisBP:0   MisRate:0.00%    MPKI:0.00
PC:1b4b2     Total:50042      MisBP:0   MisRate:0.00%    MPKI:0.00
PC:1b4be     Total:48678      MisBP:0   MisRate:0.00%    MPKI:0.00
PC:9f07c     Total:1095      MisBP:0   MisRate:0.00%    MPKI:0.00
PC:1b4c2     Total:46133      MisBP:0   MisRate:0.00%    MPKI:0.00
PC:2fd38     Total:4378      MisBP:0   MisRate:0.00%    MPKI:0.00
PC:1b4ec     Total:5766      MisBP:0   MisRate:0.00%    MPKI:0.00
PC:1b4f0     Total:5530      MisBP:0   MisRate:0.00%    MPKI:0.00
PC:52126     Total:5      MisBP:0   MisRate:0.00%    MPKI:0.00
PC:3cfb4     Total:28639      MisBP:0   MisRate:0.00%    MPKI:0.00
PC:2873e     Total:65806      MisBP:0   MisRate:0.00%    MPKI:0.00
PC:3cfb8     Total:28638      MisBP:0   MisRate:0.00%    MPKI:0.00
PC:28742     Total:63327      MisBP:0   MisRate:0.00%    MPKI:0.00
PC:3cfbc     Total:28638      MisBP:0   MisRate:0.00%    MPKI:0.00
PC:28746     Total:63229      MisBP:0   MisRate:0.00%    MPKI:0.00
PC:3cfc0     Total:26289      MisBP:0   MisRate:0.00%    MPKI:0.00
PC:52124     Total:5      MisBP:0   MisRate:0.00%    MPKI:0.00
PC:2874a     Total:63100      MisBP:0   MisRate:0.00%    MPKI:0.00
PC:3cfc2     Total:26289      MisBP:0   MisRate:0.00%    MPKI:0.00
PC:beffccf8     Total:1      MisBP:0   MisRate:0.00%    MPKI:0.00
PC:1b4f8     Total:5529      MisBP:0   MisRate:0.00%    MPKI:0.00
PC:2874c     Total:63095      MisBP:0   MisRate:0.00%    MPKI:0.00
PC:3cfc4     Total:26289      MisBP:0   MisRate:0.00%    MPKI:0.00
PC:beffccfc     Total:1      MisBP:0   MisRate:0.00%    MPKI:0.00
PC:5212a     Total:5      MisBP:0   MisRate:0.00%    MPKI:0.00
PC:28750     Total:63084      MisBP:0   MisRate:0.00%    MPKI:0.00
PC:3cfc8     Total:24501      MisBP:0   MisRate:0.00%    MPKI:0.00
PC:3cfca     Total:24501      MisBP:0   MisRate:0.00%    MPKI:0.00
PC:28754     Total:63076      MisBP:0   MisRate:0.00%    MPKI:0.00
PC:3cfce     Total:14492      MisBP:0   MisRate:0.00%    MPKI:0.00
PC:52132     Total:5      MisBP:0   MisRate:0.00%    MPKI:0.00
PC:3fe70     Total:967      MisBP:0   MisRate:0.00%    MPKI:0.00
PC:27746     Total:4259      MisBP:0   MisRate:0.00%    MPKI:0.00
PC:3bfc0     Total:164046      MisBP:0   MisRate:0.00%    MPKI:0.00
PC:2774a     Total:4259      MisBP:0   MisRate:0.00%    MPKI:0.00
PC:3c0a8     Total:113995      MisBP:0   MisRate:0.00%    MPKI:0.00
PC:27832     Total:1      MisBP:0   MisRate:0.00%    MPKI:0.00
PC:3c0ae     Total:22938      MisBP:0   MisRate:0.00%    MPKI:0.00
PC:27838     Total:1      MisBP:0   MisRate:0.00%    MPKI:0.00
PC:3c0be     Total:14389      MisBP:0   MisRate:0.00%    MPKI:0.00
PC:3ecc4     Total:5509      MisBP:0   MisRate:0.00%    MPKI:0.00
PC:3ece8     Total:5315      MisBP:0   MisRate:0.00%    MPKI:0.00
PC:3ed0e     Total:14712      MisBP:0   MisRate:0.00%    MPKI:0.00
PC:3bfbc     Total:177489      MisBP:0   MisRate:0.00%    MPKI:0.00
PC:16496     Total:17105      MisBP:0   MisRate:0.00%    MPKI:0.00
PC:164ac     Total:16974      MisBP:0   MisRate:0.00%    MPKI:0.00
PC:7cefa     Total:12      MisBP:0   MisRate:0.00%    MPKI:0.00
PC:920e8     Total:1094      MisBP:0   MisRate:0.00%    MPKI:0.00
PC:3ed34     Total:11810      MisBP:0   MisRate:0.00%    MPKI:0.00
PC:164b0     Total:30529      MisBP:0   MisRate:0.00%    MPKI:0.00
PC:7cefe     Total:12      MisBP:0   MisRate:0.00%    MPKI:0.00
PC:920ec     Total:463      MisBP:0   MisRate:0.00%    MPKI:0.00
PC:3ed38     Total:11810      MisBP:0   MisRate:0.00%    MPKI:0.00
PC:3ed40     Total:11062      MisBP:0   MisRate:0.00%    MPKI:0.00
PC:2fd78     Total:8540      MisBP:0   MisRate:0.00%    MPKI:0.00
PC:1b4fe     Total:5529      MisBP:0   MisRate:0.00%    MPKI:0.00
PC:2fd74     Total:8547      MisBP:0   MisRate:0.00%    MPKI:0.00
PC:1b50a     Total:41444      MisBP:0   MisRate:0.00%    MPKI:0.00
PC:1b526     Total:917      MisBP:0   MisRate:0.00%    MPKI:0.00
PC:2fd9c     Total:1865      MisBP:0   MisRate:0.00%    MPKI:0.00
PC:1b52e     Total:917      MisBP:0   MisRate:0.00%    MPKI:0.00
PC:2fda4     Total:1582      MisBP:0   MisRate:0.00%    MPKI:0.00
PC:1b536     Total:917      MisBP:0   MisRate:0.00%    MPKI:0.00
PC:2fde0     Total:849      MisBP:0   MisRate:0.00%    MPKI:0.00
PC:3cfea     Total:51731      MisBP:0   MisRate:0.00%    MPKI:0.00
PC:1b502     Total:4943      MisBP:0   MisRate:0.00%    MPKI:0.00
PC:3f610     Total:1164      MisBP:0   MisRate:0.00%    MPKI:0.00
PC:3bf90     Total:78385      MisBP:0   MisRate:0.00%    MPKI:0.00
PC:2771a     Total:21      MisBP:0   MisRate:0.00%    MPKI:0.00
PC:3bf98     Total:78383      MisBP:0   MisRate:0.00%    MPKI:0.00
PC:3bf9c     Total:78383      MisBP:0   MisRate:0.00%    MPKI:0.00
PC:3bfa0     Total:78383      MisBP:0   MisRate:0.00%    MPKI:0.00
PC:2772a     Total:32      MisBP:0   MisRate:0.00%    MPKI:0.00
PC:3bfa4     Total:78383      MisBP:0   MisRate:0.00%    MPKI:0.00
PC:2772e     Total:32      MisBP:0   MisRate:0.00%    MPKI:0.00
PC:3bfaa     Total:177492      MisBP:0   MisRate:0.00%    MPKI:0.00
PC:27734     Total:29      MisBP:0   MisRate:0.00%    MPKI:0.00
PC:3cdfc     Total:40479      MisBP:0   MisRate:0.00%    MPKI:0.00
PC:7b8e6     Total:4      MisBP:0   MisRate:0.00%    MPKI:0.00
PC:51f0c     Total:19      MisBP:0   MisRate:0.00%    MPKI:0.00
PC:28532     Total:14455      MisBP:0   MisRate:0.00%    MPKI:0.00
PC:3cdb2     Total:44010      MisBP:0   MisRate:0.00%    MPKI:0.00
PC:7a714     Total:6      MisBP:0   MisRate:0.00%    MPKI:0.00
PC:3cdda     Total:19612      MisBP:0   MisRate:0.00%    MPKI:0.00
PC:3cdde     Total:19573      MisBP:0   MisRate:0.00%    MPKI:0.00
PC:3cde4     Total:28844      MisBP:0   MisRate:0.00%    MPKI:0.00
PC:3cdec     Total:28636      MisBP:0   MisRate:0.00%    MPKI:0.00
PC:3cdf2     Total:48035      MisBP:0   MisRate:0.00%    MPKI:0.00
PC:3cdf6     Total:48028      MisBP:0   MisRate:0.00%    MPKI:0.00
PC:3cda8     Total:44011      MisBP:0   MisRate:0.00%    MPKI:0.00
PC:7b93a     Total:15      MisBP:0   MisRate:0.00%    MPKI:0.00
PC:51f60     Total:23      MisBP:0   MisRate:0.00%    MPKI:0.00
PC:28586     Total:12129      MisBP:0   MisRate:0.00%    MPKI:0.00
PC:3ce02     Total:21893      MisBP:0   MisRate:0.00%    MPKI:0.00
PC:51f66     Total:25      MisBP:0   MisRate:0.00%    MPKI:0.00
PC:2858c     Total:12124      MisBP:0   MisRate:0.00%    MPKI:0.00
PC:3ce10     Total:331982      MisBP:0   MisRate:0.00%    MPKI:0.00
PC:16e24     Total:2446      MisBP:0   MisRate:0.00%    MPKI:0.00
PC:929d6     Total:39      MisBP:0   MisRate:0.00%    MPKI:0.00
PC:16e2c     Total:2446      MisBP:0   MisRate:0.00%    MPKI:0.00
PC:3cc2e     Total:54546      MisBP:0   MisRate:0.00%    MPKI:0.00
PC:3cbc0     Total:1912      MisBP:0   MisRate:0.00%    MPKI:0.00
PC:3cbd0     Total:14051      MisBP:0   MisRate:0.00%    MPKI:0.00
PC:3cbd8     Total:1189      MisBP:0   MisRate:0.00%    MPKI:0.00
PC:3cbdc     Total:1189      MisBP:0   MisRate:0.00%    MPKI:0.00
PC:3cbe0     Total:1189      MisBP:0   MisRate:0.00%    MPKI:0.00
PC:3cbe4     Total:1189      MisBP:0   MisRate:0.00%    MPKI:0.00
PC:3cbe8     Total:1183      MisBP:0   MisRate:0.00%    MPKI:0.00
PC:3cbec     Total:1183      MisBP:0   MisRate:0.00%    MPKI:0.00
PC:3cbf0     Total:1023      MisBP:0   MisRate:0.00%    MPKI:0.00
PC:3cbfe     Total:9309      MisBP:0   MisRate:0.00%    MPKI:0.00
PC:3cc26     Total:47635      MisBP:0   MisRate:0.00%    MPKI:0.00
PC:40806     Total:27120      MisBP:0   MisRate:0.00%    MPKI:0.00
PC:3cc32     Total:5841      MisBP:0   MisRate:0.00%    MPKI:0.00
PC:3cc4c     Total:4834      MisBP:0   MisRate:0.00%    MPKI:0.00
PC:3cc52     Total:1233      MisBP:0   MisRate:0.00%    MPKI:0.00
PC:3cc5c     Total:532      MisBP:0   MisRate:0.00%    MPKI:0.00
PC:3cda0     Total:453798      MisBP:0   MisRate:0.00%    MPKI:0.00
PC:2734e     Total:2      MisBP:0   MisRate:0.00%    MPKI:0.00
PC:7a702     Total:6      MisBP:0   MisRate:0.00%    MPKI:0.00
PC:3cda4     Total:44011      MisBP:0   MisRate:0.00%    MPKI:0.00
PC:27352     Total:2      MisBP:0   MisRate:0.00%    MPKI:0.00
PC:7a706     Total:6      MisBP:0   MisRate:0.00%    MPKI:0.00
PC:29aa0     Total:3      MisBP:0   MisRate:0.00%    MPKI:0.00
PC:29a90     Total:5      MisBP:0   MisRate:0.00%    MPKI:0.00
PC:3e308     Total:462      MisBP:0   MisRate:0.00%    MPKI:0.00
PC:29a92     Total:4      MisBP:0   MisRate:0.00%    MPKI:0.00
PC:3e30c     Total:462      MisBP:0   MisRate:0.00%    MPKI:0.00
PC:3e30e     Total:462      MisBP:0   MisRate:0.00%    MPKI:0.00
PC:29a98     Total:3      MisBP:0   MisRate:0.00%    MPKI:0.00
PC:3e310     Total:494      MisBP:0   MisRate:0.00%    MPKI:0.00
PC:3e312     Total:494      MisBP:0   MisRate:0.00%    MPKI:0.00
PC:29a9c     Total:3      MisBP:0   MisRate:0.00%    MPKI:0.00
PC:3e314     Total:482      MisBP:0   MisRate:0.00%    MPKI:0.00
PC:3e316     Total:482      MisBP:0   MisRate:0.00%    MPKI:0.00
PC:3e306     Total:154      MisBP:0   MisRate:0.00%    MPKI:0.00
PC:3e318     Total:482      MisBP:0   MisRate:0.00%    MPKI:0.00
PC:3e31a     Total:475      MisBP:0   MisRate:0.00%    MPKI:0.00
PC:29aa4     Total:3      MisBP:0   MisRate:0.00%    MPKI:0.00
PC:3e320     Total:522      MisBP:0   MisRate:0.00%    MPKI:0.00
PC:29aaa     Total:3      MisBP:0   MisRate:0.00%    MPKI:0.00
PC:3e326     Total:282      MisBP:0   MisRate:0.00%    MPKI:0.00
PC:3e328     Total:284      MisBP:0   MisRate:0.00%    MPKI:0.00
PC:29ab2     Total:3      MisBP:0   MisRate:0.00%    MPKI:0.00
PC:3e32a     Total:284      MisBP:0   MisRate:0.00%    MPKI:0.00
PC:3e32e     Total:292      MisBP:0   MisRate:0.00%    MPKI:0.00
PC:3e2f2     Total:172      MisBP:0   MisRate:0.00%    MPKI:0.00
PC:15c50     Total:2834      MisBP:0   MisRate:0.00%    MPKI:0.00
PC:929de     Total:49      MisBP:0   MisRate:0.00%    MPKI:0.00
PC:16e32     Total:2349      MisBP:0   MisRate:0.00%    MPKI:0.00
PC:4080c     Total:27120      MisBP:0   MisRate:0.00%    MPKI:0.00
PC:3f630     Total:752      MisBP:0   MisRate:0.00%    MPKI:0.00
PC:15c56     Total:2834      MisBP:0   MisRate:0.00%    MPKI:0.00
PC:929e4     Total:19      MisBP:0   MisRate:0.00%    MPKI:0.00
PC:41962     Total:388      MisBP:0   MisRate:0.00%    MPKI:0.00
PC:17f88     Total:1141      MisBP:0   MisRate:0.00%    MPKI:0.00
PC:3e2ee     Total:172      MisBP:0   MisRate:0.00%    MPKI:0.00
PC:29a78     Total:7      MisBP:0   MisRate:0.00%    MPKI:0.00
PC:3cbbc     Total:2290      MisBP:0   MisRate:0.00%    MPKI:0.00
PC:29a7c     Total:13      MisBP:0   MisRate:0.00%    MPKI:0.00
PC:3e2f6     Total:172      MisBP:0   MisRate:0.00%    MPKI:0.00
PC:3e2fa     Total:172      MisBP:0   MisRate:0.00%    MPKI:0.00
PC:3e2fc     Total:172      MisBP:0   MisRate:0.00%    MPKI:0.00
PC:29a86     Total:17      MisBP:0   MisRate:0.00%    MPKI:0.00
PC:3e2fe     Total:172      MisBP:0   MisRate:0.00%    MPKI:0.00
PC:3e300     Total:154      MisBP:0   MisRate:0.00%    MPKI:0.00
PC:29a8a     Total:5      MisBP:0   MisRate:0.00%    MPKI:0.00
PC:3e304     Total:154      MisBP:0   MisRate:0.00%    MPKI:0.00
PC:29a8e     Total:5      MisBP:0   MisRate:0.00%    MPKI:0.00
PC:419be     Total:184      MisBP:0   MisRate:0.00%    MPKI:0.00
PC:3cafa     Total:22260      MisBP:0   MisRate:0.00%    MPKI:0.00
PC:19106     Total:15323      MisBP:0   MisRate:0.00%    MPKI:0.00
PC:2d97c     Total:13      MisBP:0   MisRate:0.00%    MPKI:0.00
PC:2d992     Total:11      MisBP:0   MisRate:0.00%    MPKI:0.00
PC:42208     Total:43      MisBP:0   MisRate:0.00%    MPKI:0.00
PC:42b08     Total:857      MisBP:0   MisRate:0.00%    MPKI:0.00
PC:1912e     Total:3290      MisBP:0   MisRate:0.00%    MPKI:0.00
PC:2d9a4     Total:35      MisBP:0   MisRate:0.00%    MPKI:0.00
PC:19132     Total:3285      MisBP:0   MisRate:0.00%    MPKI:0.00
PC:2d9a8     Total:245      MisBP:0   MisRate:0.00%    MPKI:0.00
PC:42220     Total:36      MisBP:0   MisRate:0.00%    MPKI:0.00
PC:3caf6     Total:22299      MisBP:0   MisRate:0.00%    MPKI:0.00
PC:42b10     Total:365      MisBP:0   MisRate:0.00%    MPKI:0.00
PC:19136     Total:3285      MisBP:0   MisRate:0.00%    MPKI:0.00
PC:2d9ac     Total:17      MisBP:0   MisRate:0.00%    MPKI:0.00
PC:182f4     Total:6      MisBP:0   MisRate:0.00%    MPKI:0.00
PC:41cce     Total:6321      MisBP:0   MisRate:0.00%    MPKI:0.00
PC:2d458     Total:25234      MisBP:0   MisRate:0.00%    MPKI:0.00
PC:19446     Total:1869      MisBP:0   MisRate:0.00%    MPKI:0.00
PC:19456     Total:2394      MisBP:0   MisRate:0.00%    MPKI:0.00
PC:2dccc     Total:1981      MisBP:0   MisRate:0.00%    MPKI:0.00
PC:37ac4     Total:2568      MisBP:0   MisRate:0.00%    MPKI:0.00
PC:3cd90     Total:30960      MisBP:0   MisRate:0.00%    MPKI:0.00
PC:929c4     Total:32      MisBP:0   MisRate:0.00%    MPKI:0.00
PC:16e16     Total:2446      MisBP:0   MisRate:0.00%    MPKI:0.00
PC:407f0     Total:40704      MisBP:0   MisRate:0.00%    MPKI:0.00
PC:3f614     Total:1164      MisBP:0   MisRate:0.00%    MPKI:0.00
PC:15c3a     Total:3160      MisBP:0   MisRate:0.00%    MPKI:0.00
PC:929c8     Total:32      MisBP:0   MisRate:0.00%    MPKI:0.00
PC:41948     Total:613      MisBP:0   MisRate:0.00%    MPKI:0.00
PC:17f6e     Total:91297      MisBP:0   MisRate:0.00%    MPKI:0.00
PC:3cd72     Total:39856      MisBP:0   MisRate:0.00%    MPKI:0.00
PC:3cd86     Total:30545      MisBP:0   MisRate:0.00%    MPKI:0.00
PC:7a6e8     Total:40      MisBP:0   MisRate:0.00%    MPKI:0.00
PC:41ce6     Total:4060      MisBP:0   MisRate:0.00%    MPKI:0.00
PC:3cd9c     Total:244442      MisBP:0   MisRate:0.00%    MPKI:0.00
PC:2734a     Total:2      MisBP:0   MisRate:0.00%    MPKI:0.00
PC:7a6fe     Total:6      MisBP:0   MisRate:0.00%    MPKI:0.00
PC:3cac2     Total:17750      MisBP:0   MisRate:0.00%    MPKI:0.00
PC:407fa     Total:40703      MisBP:0   MisRate:0.00%    MPKI:0.00
PC:15c44     Total:2834      MisBP:0   MisRate:0.00%    MPKI:0.00
PC:929d2     Total:32      MisBP:0   MisRate:0.00%    MPKI:0.00
PC:3cae6     Total:22302      MisBP:0   MisRate:0.00%    MPKI:0.00
PC:3caee     Total:22299      MisBP:0   MisRate:0.00%    MPKI:0.00
PC:1311c     Total:7      MisBP:0   MisRate:0.00%    MPKI:0.00
PC:3ed3a     Total:11810      MisBP:0   MisRate:0.00%    MPKI:0.00
PC:4211e     Total:11      MisBP:0   MisRate:0.00%    MPKI:0.00
PC:18744     Total:120700      MisBP:0   MisRate:0.00%    MPKI:0.00
PC:42120     Total:11      MisBP:0   MisRate:0.00%    MPKI:0.00
PC:40fd0     Total:1912      MisBP:0   MisRate:0.00%    MPKI:0.00
PC:42122     Total:152      MisBP:0   MisRate:0.00%    MPKI:0.00
PC:18748     Total:120671      MisBP:0   MisRate:0.00%    MPKI:0.00
PC:1874a     Total:120668      MisBP:0   MisRate:0.00%    MPKI:0.00
PC:1874e     Total:120668      MisBP:0   MisRate:0.00%    MPKI:0.00
PC:4212a     Total:87      MisBP:0   MisRate:0.00%    MPKI:0.00
PC:18750     Total:117732      MisBP:0   MisRate:0.00%    MPKI:0.00
PC:18754     Total:117732      MisBP:0   MisRate:0.00%    MPKI:0.00
PC:7a61e     Total:12      MisBP:0   MisRate:0.00%    MPKI:0.00
PC:920ee     Total:917      MisBP:0   MisRate:0.00%    MPKI:0.00
PC:42130     Total:23      MisBP:0   MisRate:0.00%    MPKI:0.00
PC:18756     Total:117732      MisBP:0   MisRate:0.00%    MPKI:0.00
PC:40fe0     Total:2230      MisBP:0   MisRate:0.00%    MPKI:0.00
PC:18758     Total:117732      MisBP:0   MisRate:0.00%    MPKI:0.00
PC:1875c     Total:117728      MisBP:0   MisRate:0.00%    MPKI:0.00
PC:3cb86     Total:1787      MisBP:0   MisRate:0.00%    MPKI:0.00
PC:3cb9e     Total:1497      MisBP:0   MisRate:0.00%    MPKI:0.00
PC:3cbb0     Total:2365      MisBP:0   MisRate:0.00%    MPKI:0.00
PC:3cbb8     Total:2362      MisBP:0   MisRate:0.00%    MPKI:0.00
PC:3cbfa     Total:19425      MisBP:0   MisRate:0.00%    MPKI:0.00
PC:2d470     Total:24752      MisBP:0   MisRate:0.00%    MPKI:0.00
PC:1945e     Total:2394      MisBP:0   MisRate:0.00%    MPKI:0.00
PC:3cb48     Total:26688      MisBP:0   MisRate:0.00%    MPKI:0.00
PC:3cb56     Total:25870      MisBP:0   MisRate:0.00%    MPKI:0.00
PC:3cb68     Total:18309      MisBP:0   MisRate:0.00%    MPKI:0.00
PC:3cb6e     Total:9660      MisBP:0   MisRate:0.00%    MPKI:0.00
PC:3cb72     Total:5306      MisBP:0   MisRate:0.00%    MPKI:0.00
PC:3cb76     Total:2233      MisBP:0   MisRate:0.00%    MPKI:0.00
PC:3cb7a     Total:2233      MisBP:0   MisRate:0.00%    MPKI:0.00
PC:3cbf6     Total:19425      MisBP:0   MisRate:0.00%    MPKI:0.00
PC:2873a     Total:65876      MisBP:0   MisRate:0.00%    MPKI:0.00
PC:6157e     Total:12      MisBP:0   MisRate:0.00%    MPKI:0.00
PC:37ba4     Total:125      MisBP:0   MisRate:0.00%    MPKI:0.00
PC:60c90     Total:10      MisBP:0   MisRate:0.00%    MPKI:0.00
PC:1953e     Total:3774      MisBP:0   MisRate:0.00%    MPKI:0.00
PC:42106     Total:11      MisBP:0   MisRate:0.00%    MPKI:0.00
PC:1872c     Total:139842      MisBP:0   MisRate:0.00%    MPKI:0.00
PC:4210a     Total:11      MisBP:0   MisRate:0.00%    MPKI:0.00
PC:18730     Total:1116198      MisBP:0   MisRate:0.00%    MPKI:0.00
PC:3ccb6     Total:15374      MisBP:0   MisRate:0.00%    MPKI:0.00
PC:7a618     Total:12      MisBP:0   MisRate:0.00%    MPKI:0.00
PC:16458     Total:25381      MisBP:0   MisRate:0.00%    MPKI:0.00
PC:99562     Total:29      MisBP:0   MisRate:0.00%    MPKI:0.00
PC:32b14     Total:24      MisBP:0   MisRate:0.00%    MPKI:0.00
PC:1557e     Total:46299      MisBP:0   MisRate:0.00%    MPKI:0.00
PC:1c7dc     Total:49313      MisBP:0   MisRate:0.00%    MPKI:0.00
PC:9956a     Total:29      MisBP:0   MisRate:0.00%    MPKI:0.00
PC:16426     Total:25063      MisBP:0   MisRate:0.00%    MPKI:0.00
PC:3fe00     Total:591      MisBP:0   MisRate:0.00%    MPKI:0.00
PC:1642c     Total:25063      MisBP:0   MisRate:0.00%    MPKI:0.00
PC:3fe06     Total:591      MisBP:0   MisRate:0.00%    MPKI:0.00
PC:16440     Total:25577      MisBP:0   MisRate:0.00%    MPKI:0.00
PC:3fe1a     Total:591      MisBP:0   MisRate:0.00%    MPKI:0.00
PC:84cec     Total:59      MisBP:0   MisRate:0.00%    MPKI:0.00
PC:3fe32     Total:559      MisBP:0   MisRate:0.00%    MPKI:0.00
PC:1b890     Total:17082      MisBP:0   MisRate:0.00%    MPKI:0.00
PC:1b89c     Total:15269      MisBP:0   MisRate:0.00%    MPKI:0.00
PC:1b8b4     Total:15106      MisBP:0   MisRate:0.00%    MPKI:0.00
PC:1b8b8     Total:1458      MisBP:0   MisRate:0.00%    MPKI:0.00
PC:1b8bc     Total:1458      MisBP:0   MisRate:0.00%    MPKI:0.00
PC:15ae8     Total:37096      MisBP:0   MisRate:0.00%    MPKI:0.00
PC:3f4c2     Total:26739      MisBP:0   MisRate:0.00%    MPKI:0.00
PC:93164     Total:55      MisBP:0   MisRate:0.00%    MPKI:0.00
PC:3fdb0     Total:15      MisBP:0   MisRate:0.00%    MPKI:0.00
PC:32b0a     Total:24      MisBP:0   MisRate:0.00%    MPKI:0.00
PC:15566     Total:48067      MisBP:0   MisRate:0.00%    MPKI:0.00
PC:3e652     Total:28      MisBP:0   MisRate:0.00%    MPKI:0.00
PC:1c7c4     Total:48409      MisBP:0   MisRate:0.00%    MPKI:0.00
PC:99552     Total:37      MisBP:0   MisRate:0.00%    MPKI:0.00
PC:32b04     Total:39      MisBP:0   MisRate:0.00%    MPKI:0.00
PC:84cde     Total:59      MisBP:0   MisRate:0.00%    MPKI:0.00
PC:32b06     Total:24      MisBP:0   MisRate:0.00%    MPKI:0.00
PC:3ef46     Total:250      MisBP:0   MisRate:0.00%    MPKI:0.00
PC:1556c     Total:48056      MisBP:0   MisRate:0.00%    MPKI:0.00
PC:84ce2     Total:59      MisBP:0   MisRate:0.00%    MPKI:0.00
PC:99558     Total:29      MisBP:0   MisRate:0.00%    MPKI:0.00
PC:163d6     Total:37634      MisBP:0   MisRate:0.00%    MPKI:0.00
PC:3ef48     Total:250      MisBP:0   MisRate:0.00%    MPKI:0.00
PC:1556e     Total:48055      MisBP:0   MisRate:0.00%    MPKI:0.00
PC:3e65a     Total:28      MisBP:0   MisRate:0.00%    MPKI:0.00
PC:32b0c     Total:24      MisBP:0   MisRate:0.00%    MPKI:0.00
PC:3ef4c     Total:250      MisBP:0   MisRate:0.00%    MPKI:0.00
PC:15572     Total:46319      MisBP:0   MisRate:0.00%    MPKI:0.00
PC:3e65e     Total:28      MisBP:0   MisRate:0.00%    MPKI:0.00
PC:32b10     Total:24      MisBP:0   MisRate:0.00%    MPKI:0.00
PC:15576     Total:46314      MisBP:0   MisRate:0.00%    MPKI:0.00
PC:3e662     Total:23      MisBP:0   MisRate:0.00%    MPKI:0.00
PC:3f4f4     Total:12063      MisBP:0   MisRate:0.00%    MPKI:0.00
PC:3fdd0     Total:137404      MisBP:0   MisRate:0.00%    MPKI:0.00
PC:163f6     Total:20961      MisBP:0   MisRate:0.00%    MPKI:0.00
PC:16c5a     Total:1060      MisBP:0   MisRate:0.00%    MPKI:0.00
PC:3fd46     Total:14      MisBP:0   MisRate:0.00%    MPKI:0.00
PC:40638     Total:1827      MisBP:0   MisRate:0.00%    MPKI:0.00
PC:16c5e     Total:1060      MisBP:0   MisRate:0.00%    MPKI:0.00
PC:3f4e8     Total:12364      MisBP:0   MisRate:0.00%    MPKI:0.00
PC:163fc     Total:20960      MisBP:0   MisRate:0.00%    MPKI:0.00
PC:4063e     Total:3109      MisBP:0   MisRate:0.00%    MPKI:0.00
PC:16c64     Total:2120      MisBP:0   MisRate:0.00%    MPKI:0.00
PC:15b1a     Total:41207      MisBP:0   MisRate:0.00%    MPKI:0.00
PC:3f4e2     Total:13673      MisBP:0   MisRate:0.00%    MPKI:0.00
PC:3fde2     Total:13672      MisBP:0   MisRate:0.00%    MPKI:0.00
PC:16408     Total:1279      MisBP:0   MisRate:0.00%    MPKI:0.00
PC:4064a     Total:2748      MisBP:0   MisRate:0.00%    MPKI:0.00
PC:16c70     Total:1060      MisBP:0   MisRate:0.00%    MPKI:0.00
PC:3f4fa     Total:10196      MisBP:0   MisRate:0.00%    MPKI:0.00
PC:15b24     Total:41192      MisBP:0   MisRate:0.00%    MPKI:0.00
PC:3f4fe     Total:10123      MisBP:0   MisRate:0.00%    MPKI:0.00
PC:15b28     Total:274827      MisBP:0   MisRate:0.00%    MPKI:0.00
PC:3f502     Total:10123      MisBP:0   MisRate:0.00%    MPKI:0.00
PC:15b2c     Total:137386      MisBP:0   MisRate:0.00%    MPKI:0.00
PC:3ffae     Total:15972      MisBP:0   MisRate:0.00%    MPKI:0.00
PC:15aec     Total:35672      MisBP:0   MisRate:0.00%    MPKI:0.00
PC:40618     Total:257      MisBP:0   MisRate:0.00%    MPKI:0.00
PC:16c3e     Total:1660      MisBP:0   MisRate:0.00%    MPKI:0.00
PC:15af0     Total:47667      MisBP:0   MisRate:0.00%    MPKI:0.00
PC:3f4ca     Total:37282      MisBP:0   MisRate:0.00%    MPKI:0.00
PC:9316c     Total:28      MisBP:0   MisRate:0.00%    MPKI:0.00
PC:4061c     Total:1761      MisBP:0   MisRate:0.00%    MPKI:0.00
PC:16c42     Total:1094      MisBP:0   MisRate:0.00%    MPKI:0.00
PC:40620     Total:1761      MisBP:0   MisRate:0.00%    MPKI:0.00
PC:16c46     Total:1094      MisBP:0   MisRate:0.00%    MPKI:0.00
PC:3ee56     Total:29499      MisBP:0   MisRate:0.00%    MPKI:0.00
PC:32b00     Total:39      MisBP:0   MisRate:0.00%    MPKI:0.00
PC:165d4     Total:14130      MisBP:0   MisRate:0.00%    MPKI:0.00
PC:15afe     Total:47629      MisBP:0   MisRate:0.00%    MPKI:0.00
PC:163ec     Total:20996      MisBP:0   MisRate:0.00%    MPKI:0.00
PC:3ffb2     Total:15972      MisBP:0   MisRate:0.00%    MPKI:0.00
PC:165d8     Total:16556      MisBP:0   MisRate:0.00%    MPKI:0.00
PC:16c54     Total:1094      MisBP:0   MisRate:0.00%    MPKI:0.00
PC:40630     Total:1759      MisBP:0   MisRate:0.00%    MPKI:0.00
PC:16c56     Total:1094      MisBP:0   MisRate:0.00%    MPKI:0.00
PC:16368     Total:13942      MisBP:0   MisRate:0.00%    MPKI:0.00
PC:3fd42     Total:14      MisBP:0   MisRate:0.00%    MPKI:0.00
[...]
PC:18e38     Total:88969      MisBP:5794   MisRate:6.51%    MPKI:0.02
PC:15890     Total:37257      MisBP:5870   MisRate:15.76%    MPKI:0.02
PC:2d294     Total:129274      MisBP:5918   MisRate:4.58%    MPKI:0.02
PC:3f4a2     Total:34265      MisBP:5973   MisRate:17.43%    MPKI:0.02
PC:1c044     Total:110475      MisBP:5976   MisRate:5.41%    MPKI:0.02
PC:1927e     Total:74710      MisBP:5996   MisRate:8.03%    MPKI:0.02
PC:19a82     Total:367879      MisBP:6041   MisRate:1.64%    MPKI:0.02
PC:2fd2c     Total:88028      MisBP:6117   MisRate:6.95%    MPKI:0.02
PC:14ef6     Total:65450      MisBP:6150   MisRate:9.40%    MPKI:0.02
PC:1c15c     Total:53172      MisBP:6154   MisRate:11.57%    MPKI:0.02
PC:2e3bc     Total:38511      MisBP:6192   MisRate:16.08%    MPKI:0.02
PC:2e3ec     Total:67029      MisBP:6232   MisRate:9.30%    MPKI:0.02
PC:15bea     Total:45438      MisBP:6241   MisRate:13.74%    MPKI:0.02
PC:40916     Total:29183      MisBP:6268   MisRate:21.48%    MPKI:0.02
PC:3ea00     Total:16053      MisBP:6287   MisRate:39.16%    MPKI:0.02
PC:1acc2     Total:63865      MisBP:6295   MisRate:9.86%    MPKI:0.02
PC:2cd8e     Total:89130      MisBP:6311   MisRate:7.08%    MPKI:0.02
PC:31996     Total:122172      MisBP:6333   MisRate:5.18%    MPKI:0.02
PC:3f49c     Total:39944      MisBP:6351   MisRate:15.90%    MPKI:0.02
PC:3c7b8     Total:73633      MisBP:6358   MisRate:8.63%    MPKI:0.02
PC:3cb10     Total:43684      MisBP:6414   MisRate:14.68%    MPKI:0.02
PC:15942     Total:72385      MisBP:6417   MisRate:8.87%    MPKI:0.02
PC:2cd7e     Total:87956      MisBP:6423   MisRate:7.30%    MPKI:0.02
PC:1615e     Total:33008      MisBP:6439   MisRate:19.51%    MPKI:0.02
PC:18b12     Total:44357      MisBP:6448   MisRate:14.54%    MPKI:0.02
PC:2cb26     Total:68155      MisBP:6456   MisRate:9.47%    MPKI:0.02
PC:16138     Total:38684      MisBP:6472   MisRate:16.73%    MPKI:0.02
PC:1accc     Total:69864      MisBP:6483   MisRate:9.28%    MPKI:0.02
PC:19646     Total:38190      MisBP:6514   MisRate:17.06%    MPKI:0.02
PC:3f4d2     Total:27640      MisBP:6522   MisRate:23.60%    MPKI:0.02
PC:4092c     Total:48915      MisBP:6524   MisRate:13.34%    MPKI:0.02
PC:47bcc     Total:22653      MisBP:6538   MisRate:28.86%    MPKI:0.02
PC:2d688     Total:52190      MisBP:6573   MisRate:12.59%    MPKI:0.02
PC:187b4     Total:317588      MisBP:6608   MisRate:2.08%    MPKI:0.02
PC:1608e     Total:21313      MisBP:6610   MisRate:31.01%    MPKI:0.02
PC:15c9c     Total:47494      MisBP:6613   MisRate:13.92%    MPKI:0.02
PC:2d6bc     Total:61807      MisBP:6665   MisRate:10.78%    MPKI:0.02
PC:1ac4c     Total:127901      MisBP:6672   MisRate:5.22%    MPKI:0.02
PC:1af18     Total:56296      MisBP:6677   MisRate:11.86%    MPKI:0.02
PC:40b2c     Total:138962      MisBP:6715   MisRate:4.83%    MPKI:0.02
PC:3cfec     Total:49696      MisBP:6775   MisRate:13.63%    MPKI:0.02
PC:19328     Total:68410      MisBP:6830   MisRate:9.98%    MPKI:0.02
PC:192cc     Total:83907      MisBP:6840   MisRate:8.15%    MPKI:0.02
PC:3c62a     Total:46186      MisBP:6857   MisRate:14.85%    MPKI:0.02
PC:3c5cc     Total:47951      MisBP:6863   MisRate:14.31%    MPKI:0.02
PC:3c634     Total:49086      MisBP:6938   MisRate:14.13%    MPKI:0.02
PC:192b4     Total:90018      MisBP:6956   MisRate:7.73%    MPKI:0.02
PC:3cd7e     Total:37523      MisBP:7023   MisRate:18.72%    MPKI:0.02
PC:1614c     Total:26504      MisBP:7024   MisRate:26.50%    MPKI:0.02
PC:19a52     Total:41287      MisBP:7072   MisRate:17.13%    MPKI:0.02
PC:3c64a     Total:34937      MisBP:7095   MisRate:20.31%    MPKI:0.02
PC:3be8a     Total:78355      MisBP:7188   MisRate:9.17%    MPKI:0.02
PC:164b4     Total:30528      MisBP:7200   MisRate:23.58%    MPKI:0.02
PC:196ea     Total:44169      MisBP:7221   MisRate:16.35%    MPKI:0.02
PC:18bec     Total:676929      MisBP:7233   MisRate:1.07%    MPKI:0.02
PC:3c804     Total:104675      MisBP:7338   MisRate:7.01%    MPKI:0.02
PC:28788     Total:84051      MisBP:7415   MisRate:8.82%    MPKI:0.02
PC:18a14     Total:50994      MisBP:7425   MisRate:14.56%    MPKI:0.02
PC:199de     Total:96377      MisBP:7431   MisRate:7.71%    MPKI:0.02
PC:15d22     Total:35562      MisBP:7451   MisRate:20.95%    MPKI:0.02
PC:2d6d0     Total:63436      MisBP:7452   MisRate:11.75%    MPKI:0.02
PC:1c0b6     Total:51396      MisBP:7510   MisRate:14.61%    MPKI:0.02
PC:199e8     Total:104155      MisBP:7583   MisRate:7.28%    MPKI:0.02
PC:1ae24     Total:64578      MisBP:7617   MisRate:11.80%    MPKI:0.02
PC:2cdee     Total:135856      MisBP:7661   MisRate:5.64%    MPKI:0.02
PC:410ee     Total:26910      MisBP:7721   MisRate:28.69%    MPKI:0.02
PC:1c200     Total:63896      MisBP:7766   MisRate:12.15%    MPKI:0.03
PC:2d47c     Total:43495      MisBP:7767   MisRate:17.86%    MPKI:0.03
PC:18fce     Total:70906      MisBP:7792   MisRate:10.99%    MPKI:0.03
PC:314ce     Total:147521      MisBP:7816   MisRate:5.30%    MPKI:0.03
PC:3c878     Total:50579      MisBP:7819   MisRate:15.46%    MPKI:0.03
PC:2d73a     Total:74554      MisBP:7820   MisRate:10.49%    MPKI:0.03
PC:1c04a     Total:100046      MisBP:7836   MisRate:7.83%    MPKI:0.03
PC:513c2     Total:52432      MisBP:7871   MisRate:15.01%    MPKI:0.03
PC:306c2     Total:216109      MisBP:7922   MisRate:3.67%    MPKI:0.03
PC:190a6     Total:52209      MisBP:8028   MisRate:15.38%    MPKI:0.03
PC:1ad02     Total:46852      MisBP:8031   MisRate:17.14%    MPKI:0.03
PC:18df0     Total:79821      MisBP:8054   MisRate:10.09%    MPKI:0.03
PC:3c2d4     Total:78073      MisBP:8123   MisRate:10.40%    MPKI:0.03
PC:1add0     Total:82360      MisBP:8248   MisRate:10.01%    MPKI:0.03
PC:16198     Total:34609      MisBP:8248   MisRate:23.83%    MPKI:0.03
PC:319c8     Total:45255      MisBP:8305   MisRate:18.35%    MPKI:0.03
PC:1c826     Total:140181      MisBP:8347   MisRate:5.95%    MPKI:0.03
PC:19a6c     Total:43741      MisBP:8377   MisRate:19.15%    MPKI:0.03
PC:478b8     Total:47402      MisBP:8440   MisRate:17.81%    MPKI:0.03
PC:3f4cc     Total:37282      MisBP:8472   MisRate:22.72%    MPKI:0.03
PC:24ccc     Total:138353      MisBP:8629   MisRate:6.24%    MPKI:0.03
PC:1ad06     Total:97318      MisBP:8681   MisRate:8.92%    MPKI:0.03
PC:3e748     Total:37767      MisBP:8688   MisRate:23.00%    MPKI:0.03
PC:286ac     Total:119898      MisBP:8695   MisRate:7.25%    MPKI:0.03
PC:513b0     Total:58507      MisBP:8795   MisRate:15.03%    MPKI:0.03
PC:197f4     Total:42478      MisBP:8806   MisRate:20.73%    MPKI:0.03
PC:3c264     Total:105814      MisBP:8816   MisRate:8.33%    MPKI:0.03
PC:18f84     Total:60208      MisBP:8829   MisRate:14.66%    MPKI:0.03
PC:162e0     Total:49285      MisBP:8871   MisRate:18.00%    MPKI:0.03
PC:3ec4e     Total:25104      MisBP:8874   MisRate:35.35%    MPKI:0.03
PC:3ce46     Total:42292      MisBP:9015   MisRate:21.32%    MPKI:0.03
PC:3ec3c     Total:63993      MisBP:9085   MisRate:14.20%    MPKI:0.03
PC:40936     Total:31103      MisBP:9110   MisRate:29.29%    MPKI:0.03
PC:3bfc4     Total:164045      MisBP:9112   MisRate:5.55%    MPKI:0.03
PC:3c692     Total:69259      MisBP:9116   MisRate:13.16%    MPKI:0.03
PC:158ca     Total:78136      MisBP:9129   MisRate:11.68%    MPKI:0.03
PC:2ce48     Total:126075      MisBP:9135   MisRate:7.25%    MPKI:0.03
PC:159ce     Total:121945      MisBP:9312   MisRate:7.64%    MPKI:0.03
PC:18f26     Total:78292      MisBP:9350   MisRate:11.94%    MPKI:0.03
PC:15e94     Total:30048      MisBP:9463   MisRate:31.49%    MPKI:0.03
PC:40b32     Total:151206      MisBP:9519   MisRate:6.30%    MPKI:0.03
PC:2f3f4     Total:101272      MisBP:9563   MisRate:9.44%    MPKI:0.03
PC:288b8     Total:111051      MisBP:9615   MisRate:8.66%    MPKI:0.03
PC:1596a     Total:130684      MisBP:9655   MisRate:7.39%    MPKI:0.03
PC:51358     Total:1090887      MisBP:9728   MisRate:0.89%    MPKI:0.03
PC:1931c     Total:70703      MisBP:9737   MisRate:13.77%    MPKI:0.03
PC:1acb8     Total:51390      MisBP:9801   MisRate:19.07%    MPKI:0.03
PC:2d878     Total:94380      MisBP:9816   MisRate:10.40%    MPKI:0.03
PC:2ca4a     Total:59251      MisBP:9871   MisRate:16.66%    MPKI:0.03
PC:3ce00     Total:38329      MisBP:9891   MisRate:25.81%    MPKI:0.03
PC:1adcc     Total:93582      MisBP:9942   MisRate:10.62%    MPKI:0.03
PC:3c7bc     Total:70053      MisBP:10017   MisRate:14.30%    MPKI:0.03
PC:15b50     Total:51238      MisBP:10134   MisRate:19.78%    MPKI:0.03
PC:1acaa     Total:67567      MisBP:10499   MisRate:15.54%    MPKI:0.03
PC:1973c     Total:79148      MisBP:10504   MisRate:13.27%    MPKI:0.03
PC:1ad0c     Total:90588      MisBP:10528   MisRate:11.62%    MPKI:0.03
PC:159e8     Total:98970      MisBP:10585   MisRate:10.70%    MPKI:0.03
PC:159d4     Total:99023      MisBP:10637   MisRate:10.74%    MPKI:0.03
PC:2caf6     Total:71213      MisBP:10784   MisRate:15.14%    MPKI:0.03
PC:154b2     Total:270716      MisBP:10885   MisRate:4.02%    MPKI:0.04
PC:2d576     Total:61385      MisBP:10903   MisRate:17.76%    MPKI:0.04
PC:3c298     Total:62302      MisBP:10933   MisRate:17.55%    MPKI:0.04
PC:15972     Total:120258      MisBP:11033   MisRate:9.17%    MPKI:0.04
PC:41130     Total:34473      MisBP:11048   MisRate:32.05%    MPKI:0.04
PC:2ce78     Total:44504      MisBP:11084   MisRate:24.91%    MPKI:0.04
PC:47b0c     Total:89319      MisBP:11185   MisRate:12.52%    MPKI:0.04
PC:18eba     Total:77868      MisBP:11210   MisRate:14.40%    MPKI:0.04
PC:2d7ee     Total:132550      MisBP:11328   MisRate:8.55%    MPKI:0.04
PC:3199e     Total:139056      MisBP:11448   MisRate:8.23%    MPKI:0.04
PC:2d2ae     Total:59818      MisBP:11501   MisRate:19.23%    MPKI:0.04
PC:3cb1a     Total:53057      MisBP:11507   MisRate:21.69%    MPKI:0.04
PC:3c7e0     Total:94435      MisBP:11592   MisRate:12.28%    MPKI:0.04
PC:2ca8c     Total:94254      MisBP:11829   MisRate:12.55%    MPKI:0.04
PC:3be8e     Total:72555      MisBP:12015   MisRate:16.56%    MPKI:0.04
PC:1882e     Total:180779      MisBP:12022   MisRate:6.65%    MPKI:0.04
PC:30696     Total:238026      MisBP:12048   MisRate:5.06%    MPKI:0.04
PC:306c6     Total:214135      MisBP:12191   MisRate:5.69%    MPKI:0.04
PC:15c92     Total:68616      MisBP:12325   MisRate:17.96%    MPKI:0.04
PC:2cda0     Total:106220      MisBP:12326   MisRate:11.60%    MPKI:0.04
PC:1c77e     Total:90888      MisBP:12342   MisRate:13.58%    MPKI:0.04
PC:3c7ee     Total:65426      MisBP:12627   MisRate:19.30%    MPKI:0.04
PC:47b58     Total:89956      MisBP:12661   MisRate:14.07%    MPKI:0.04
PC:19754     Total:81108      MisBP:12859   MisRate:15.85%    MPKI:0.04
PC:156b6     Total:198438      MisBP:12994   MisRate:6.55%    MPKI:0.04
PC:3cfa6     Total:181933      MisBP:13147   MisRate:7.23%    MPKI:0.04
PC:199dc     Total:127040      MisBP:13485   MisRate:10.61%    MPKI:0.04
PC:2cd68     Total:117806      MisBP:13540   MisRate:11.49%    MPKI:0.04
PC:1c82c     Total:184093      MisBP:13543   MisRate:7.36%    MPKI:0.04
PC:17de6     Total:75702      MisBP:13554   MisRate:17.90%    MPKI:0.04
PC:159fe     Total:93115      MisBP:13594   MisRate:14.60%    MPKI:0.04
PC:2cd76     Total:92713      MisBP:13709   MisRate:14.79%    MPKI:0.04
PC:1b830     Total:36326      MisBP:13919   MisRate:38.32%    MPKI:0.04
PC:2cca2     Total:96895      MisBP:13989   MisRate:14.44%    MPKI:0.05
PC:319bc     Total:134908      MisBP:14010   MisRate:10.38%    MPKI:0.05
PC:3c7b2     Total:96451      MisBP:14175   MisRate:14.70%    MPKI:0.05
PC:1acd6     Total:117444      MisBP:14260   MisRate:12.14%    MPKI:0.05
PC:159ee     Total:96158      MisBP:14396   MisRate:14.97%    MPKI:0.05
PC:159f8     Total:91596      MisBP:14415   MisRate:15.74%    MPKI:0.05
PC:2d29e     Total:122150      MisBP:14416   MisRate:11.80%    MPKI:0.05
PC:2e870     Total:137880      MisBP:14495   MisRate:10.51%    MPKI:0.05
PC:3cff0     Total:54211      MisBP:14646   MisRate:27.02%    MPKI:0.05
PC:17e74     Total:54642      MisBP:14670   MisRate:26.85%    MPKI:0.05
PC:1acf6     Total:66589      MisBP:14995   MisRate:22.52%    MPKI:0.05
PC:2fd58     Total:87627      MisBP:15139   MisRate:17.28%    MPKI:0.05
PC:2cc6c     Total:94549      MisBP:15265   MisRate:16.15%    MPKI:0.05
PC:15950     Total:80667      MisBP:15377   MisRate:19.06%    MPKI:0.05
PC:47b94     Total:98574      MisBP:15736   MisRate:15.96%    MPKI:0.05
PC:1acbc     Total:84997      MisBP:15825   MisRate:18.62%    MPKI:0.05
PC:2cc64     Total:199706      MisBP:15894   MisRate:7.96%    MPKI:0.05
PC:1576e     Total:92151      MisBP:16207   MisRate:17.59%    MPKI:0.05
PC:17fcc     Total:140575      MisBP:16274   MisRate:11.58%    MPKI:0.05
PC:28718     Total:100837      MisBP:16328   MisRate:16.19%    MPKI:0.05
PC:2cdc8     Total:127974      MisBP:16642   MisRate:13.00%    MPKI:0.05
PC:2893e     Total:374751      MisBP:16720   MisRate:4.46%    MPKI:0.05
PC:19614     Total:309175      MisBP:16776   MisRate:5.43%    MPKI:0.05
PC:1ace0     Total:125938      MisBP:17251   MisRate:13.70%    MPKI:0.06
PC:47b60     Total:95346      MisBP:17770   MisRate:18.64%    MPKI:0.06
PC:28644     Total:112937      MisBP:18251   MisRate:16.16%    MPKI:0.06
PC:18dfa     Total:104643      MisBP:18303   MisRate:17.49%    MPKI:0.06
PC:15a08     Total:103382      MisBP:18416   MisRate:17.81%    MPKI:0.06
PC:18d72     Total:94211      MisBP:18432   MisRate:19.56%    MPKI:0.06
PC:18e00     Total:256687      MisBP:18455   MisRate:7.19%    MPKI:0.06
PC:15a0e     Total:110520      MisBP:18515   MisRate:16.75%    MPKI:0.06
PC:2cc86     Total:348256      MisBP:19346   MisRate:5.56%    MPKI:0.06
PC:1aca4     Total:93004      MisBP:19486   MisRate:20.95%    MPKI:0.06
PC:192e0     Total:168260      MisBP:19927   MisRate:11.84%    MPKI:0.06
PC:287d4     Total:88097      MisBP:20095   MisRate:22.81%    MPKI:0.06
PC:18d56     Total:114771      MisBP:20108   MisRate:17.52%    MPKI:0.06
PC:9e50c     Total:580477      MisBP:20489   MisRate:3.53%    MPKI:0.07
PC:1c12c     Total:135799      MisBP:20572   MisRate:15.15%    MPKI:0.07
PC:14e64     Total:166338      MisBP:20713   MisRate:12.45%    MPKI:0.07
PC:176c2     Total:128907      MisBP:20740   MisRate:16.09%    MPKI:0.07
PC:1aca0     Total:117326      MisBP:20752   MisRate:17.69%    MPKI:0.07
PC:1b7f4     Total:73263      MisBP:20802   MisRate:28.39%    MPKI:0.07
PC:14e10     Total:92006      MisBP:20823   MisRate:22.63%    MPKI:0.07
PC:18dde     Total:83079      MisBP:20972   MisRate:25.24%    MPKI:0.07
PC:18f6a     Total:216447      MisBP:21018   MisRate:9.71%    MPKI:0.07
PC:512ba     Total:190684      MisBP:21021   MisRate:11.02%    MPKI:0.07
PC:18d76     Total:104906      MisBP:21217   MisRate:20.22%    MPKI:0.07
PC:199f6     Total:149854      MisBP:21643   MisRate:14.44%    MPKI:0.07
PC:1595a     Total:97861      MisBP:21921   MisRate:22.40%    MPKI:0.07
PC:18d6a     Total:82020      MisBP:22242   MisRate:27.12%    MPKI:0.07
PC:192ac     Total:167895      MisBP:22404   MisRate:13.34%    MPKI:0.07
PC:2ca90     Total:111888      MisBP:22846   MisRate:20.42%    MPKI:0.07
PC:1c088     Total:79417      MisBP:23042   MisRate:29.01%    MPKI:0.07
PC:1c7d4     Total:76656      MisBP:23345   MisRate:30.45%    MPKI:0.08
PC:2d2a2     Total:140799      MisBP:23650   MisRate:16.80%    MPKI:0.08
PC:2cd4a     Total:145513      MisBP:23762   MisRate:16.33%    MPKI:0.08
PC:1925a     Total:152888      MisBP:23886   MisRate:15.62%    MPKI:0.08
PC:1c1d2     Total:103423      MisBP:24180   MisRate:23.38%    MPKI:0.08
PC:17dac     Total:108444      MisBP:24195   MisRate:22.31%    MPKI:0.08
PC:1bfe2     Total:265131      MisBP:24290   MisRate:9.16%    MPKI:0.08
PC:14fb8     Total:531431      MisBP:24875   MisRate:4.68%    MPKI:0.08
PC:15a1e     Total:80191      MisBP:25105   MisRate:31.31%    MPKI:0.08
PC:3cfac     Total:166909      MisBP:25556   MisRate:15.31%    MPKI:0.08
PC:15964     Total:117586      MisBP:25902   MisRate:22.03%    MPKI:0.08
PC:1c01e     Total:166901      MisBP:25928   MisRate:15.53%    MPKI:0.08
PC:51368     Total:879759      MisBP:26159   MisRate:2.97%    MPKI:0.08
PC:154ac     Total:259534      MisBP:26946   MisRate:10.38%    MPKI:0.09
PC:3ca14     Total:236106      MisBP:27617   MisRate:11.70%    MPKI:0.09
PC:14ea4     Total:175376      MisBP:27663   MisRate:15.77%    MPKI:0.09
PC:3c220     Total:441191      MisBP:28071   MisRate:6.36%    MPKI:0.09
PC:14f26     Total:191439      MisBP:29174   MisRate:15.24%    MPKI:0.09
PC:15b40     Total:123743      MisBP:29242   MisRate:23.63%    MPKI:0.09
PC:154a2     Total:149648      MisBP:29449   MisRate:19.68%    MPKI:0.09
PC:155e6     Total:143622      MisBP:29581   MisRate:20.60%    MPKI:0.10
PC:28602     Total:1294629      MisBP:29737   MisRate:2.30%    MPKI:0.10
PC:3bfc6     Total:160506      MisBP:30005   MisRate:18.69%    MPKI:0.10
PC:512b6     Total:284588      MisBP:30124   MisRate:10.59%    MPKI:0.10
PC:14fa8     Total:117251      MisBP:31040   MisRate:26.47%    MPKI:0.10
PC:18d4c     Total:140813      MisBP:31055   MisRate:22.05%    MPKI:0.10
PC:157ba     Total:92733      MisBP:31058   MisRate:33.49%    MPKI:0.10
PC:14ee6     Total:181413      MisBP:31770   MisRate:17.51%    MPKI:0.10
PC:2cc8c     Total:333709      MisBP:31866   MisRate:9.55%    MPKI:0.10
PC:19314     Total:176285      MisBP:32608   MisRate:18.50%    MPKI:0.11
PC:512ac     Total:458882      MisBP:32677   MisRate:7.12%    MPKI:0.11
PC:3bfda     Total:194728      MisBP:32854   MisRate:16.87%    MPKI:0.11
PC:15a16     Total:99227      MisBP:33813   MisRate:34.08%    MPKI:0.11
PC:1bfca     Total:203740      MisBP:33881   MisRate:16.63%    MPKI:0.11
PC:3ca34     Total:233877      MisBP:34130   MisRate:14.59%    MPKI:0.11
PC:3bf76     Total:769639      MisBP:35515   MisRate:4.61%    MPKI:0.11
PC:2cc9c     Total:393219      MisBP:35567   MisRate:9.05%    MPKI:0.11
PC:18cde     Total:226626      MisBP:36469   MisRate:16.09%    MPKI:0.12
PC:3ca0a     Total:286638      MisBP:37263   MisRate:13.00%    MPKI:0.12
PC:18d3e     Total:163906      MisBP:38859   MisRate:23.71%    MPKI:0.13
PC:14fb2     Total:494327      MisBP:39496   MisRate:7.99%    MPKI:0.13
PC:156e4     Total:269231      MisBP:39741   MisRate:14.76%    MPKI:0.13
PC:3bf88     Total:115808      MisBP:41600   MisRate:35.92%    MPKI:0.13
PC:3c6e4     Total:165905      MisBP:41670   MisRate:25.12%    MPKI:0.13
PC:3c73a     Total:265711      MisBP:42443   MisRate:15.97%    MPKI:0.14
PC:14f62     Total:197057      MisBP:42731   MisRate:21.68%    MPKI:0.14
PC:1bfe8     Total:228908      MisBP:43175   MisRate:18.86%    MPKI:0.14
PC:3c224     Total:455947      MisBP:44036   MisRate:9.66%    MPKI:0.14
PC:18d34     Total:207480      MisBP:44526   MisRate:21.46%    MPKI:0.14
PC:18bb2     Total:291267      MisBP:46346   MisRate:15.91%    MPKI:0.15
PC:156a4     Total:245784      MisBP:46370   MisRate:18.87%    MPKI:0.15
PC:1bf88     Total:128646      MisBP:46604   MisRate:36.23%    MPKI:0.15
PC:24cc8     Total:163294      MisBP:49167   MisRate:30.11%    MPKI:0.16
PC:1bfc4     Total:256297      MisBP:49467   MisRate:19.30%    MPKI:0.16
PC:3ca32     Total:366852      MisBP:54598   MisRate:14.88%    MPKI:0.18
PC:84c10     Total:128575      MisBP:56781   MisRate:44.16%    MPKI:0.18
PC:51360     Total:1092576      MisBP:61408   MisRate:5.62%    MPKI:0.20
PC:1bfa8     Total:199420      MisBP:64893   MisRate:32.54%    MPKI:0.21
PC:18bda     Total:614386      MisBP:67928   MisRate:11.06%    MPKI:0.22
PC:17694     Total:1851781      MisBP:76501   MisRate:4.13%    MPKI:0.25
PC:2866a     Total:1275300      MisBP:78096   MisRate:6.12%    MPKI:0.25
PC:188ca     Total:349271      MisBP:81367   MisRate:23.30%    MPKI:0.26
PC:18bde     Total:680012      MisBP:96445   MisRate:14.18%    MPKI:0.31
PC:3bf7c     Total:728233      MisBP:103442   MisRate:14.20%    MPKI:0.33
PC:1a934     Total:698746      MisBP:197551   MisRate:28.27%    MPKI:0.64
Totfetch:644638279  TotInsts:310000003  TotMis : inf%   MPKI : 22.16
=============finish sim!!!!!!=============
Done running SimPoint!
