Global frequency set at 1000000000000 ticks per second
 Register [printBranch()] ExitCallback !!!!!!! 
gem5 Simulator System.  https://www.gem5.org
gem5 is copyrighted software; use the --copyright option for details.

gem5 version 22.0.0.2
gem5 compiled Sep  7 2022 00:42:18
gem5 started Sep  7 2022 06:32:38
gem5 executing on a100, pid 2829188
command line: /data/zxf/gem5/gem5-prof/build/ARM/gem5.fast --outdir=/data/zxf/checkpoint/spec2006/401.bzip2/prof/bzip2_ckp_15 /data/zxf/gem5/gem5-prof/configs/example/se.py --cpu-type O3CPU --cpu-clock 1GHz --num-cpu 1 --l1d-hwp-type=BOPPrefetcher --caches --l2cache --l1i_size 32kB --l1d_size 32kB --l2_size 1MB --l1i_assoc 8 --l1d_assoc 8 --l2_assoc 16 --cacheline_size 64 --mem-type DDR3_2133_8x8 --mem-size 16GB --restore-simpoint-checkpoint -r 15 --checkpoint-dir /data/zxf/checkpoint/spec2006/401.bzip2/ckpt -c bzip2_base.gcc41-64bit -o 'input.source 280'

info: Standard input is not a terminal, disabling listeners.
Resuming from /data/zxf/checkpoint/spec2006/401.bzip2/ckpt/cpt.simpoint_14_inst_341390000000_weight_0.089012_interval_300000000_warmup_10000000
Resuming from SimPoint #14, start_inst:341390000000, weight:0.089012, interval:300000000, warmup:10000000
Switch at curTick count:10000
Switched CPUS @ tick 210538009779000
[(<m5.objects.ArmCPU.ArmAtomicSimpleCPU object at 0x7f8eeeeecbb0>, <m5.objects.ArmCPU.ArmO3CPU object at 0x7f8eeef04e20>)]
switching cpus



+++++++++++++++++++++++++zxf print simpoint+++++++++++++++++++++++++++
Warmed up! Dumping and resetting stats!


=============start sim!!!!!!=============
PC:167ca     Total:295      MisBP:0   MisRate:0.00%    MPKI:0.00
PC:18f9a     Total:4      MisBP:0   MisRate:0.00%    MPKI:0.00
PC:167dc     Total:234      MisBP:0   MisRate:0.00%    MPKI:0.00
PC:18f96     Total:4      MisBP:0   MisRate:0.00%    MPKI:0.00
PC:167d8     Total:234      MisBP:0   MisRate:0.00%    MPKI:0.00
PC:167d6     Total:234      MisBP:0   MisRate:0.00%    MPKI:0.00
PC:18f92     Total:4      MisBP:0   MisRate:0.00%    MPKI:0.00
PC:167d4     Total:234      MisBP:0   MisRate:0.00%    MPKI:0.00
PC:18f90     Total:4      MisBP:0   MisRate:0.00%    MPKI:0.00
PC:167d2     Total:234      MisBP:0   MisRate:0.00%    MPKI:0.00
PC:167ce     Total:280      MisBP:0   MisRate:0.00%    MPKI:0.00
PC:167e0     Total:203      MisBP:0   MisRate:0.00%    MPKI:0.00
PC:167c8     Total:295      MisBP:0   MisRate:0.00%    MPKI:0.00
PC:167c4     Total:295      MisBP:0   MisRate:0.00%    MPKI:0.00
PC:167c0     Total:295      MisBP:0   MisRate:0.00%    MPKI:0.00
PC:18fba     Total:4      MisBP:0   MisRate:0.00%    MPKI:0.00
PC:167fc     Total:10      MisBP:0   MisRate:0.00%    MPKI:0.00
PC:18fb6     Total:4      MisBP:0   MisRate:0.00%    MPKI:0.00
PC:167f8     Total:12      MisBP:0   MisRate:0.00%    MPKI:0.00
PC:18fb2     Total:4      MisBP:0   MisRate:0.00%    MPKI:0.00
PC:167f4     Total:12      MisBP:0   MisRate:0.00%    MPKI:0.00
PC:18fb0     Total:4      MisBP:0   MisRate:0.00%    MPKI:0.00
PC:18fd2     Total:3      MisBP:0   MisRate:0.00%    MPKI:0.00
PC:16828     Total:2      MisBP:0   MisRate:0.00%    MPKI:0.00
PC:18fe2     Total:3      MisBP:0   MisRate:0.00%    MPKI:0.00
PC:16824     Total:2      MisBP:0   MisRate:0.00%    MPKI:0.00
PC:18fde     Total:3      MisBP:0   MisRate:0.00%    MPKI:0.00
PC:16820     Total:2      MisBP:0   MisRate:0.00%    MPKI:0.00
PC:1681c     Total:5      MisBP:0   MisRate:0.00%    MPKI:0.00
PC:18fd8     Total:3      MisBP:0   MisRate:0.00%    MPKI:0.00
PC:1681a     Total:5      MisBP:0   MisRate:0.00%    MPKI:0.00
PC:18fd4     Total:3      MisBP:0   MisRate:0.00%    MPKI:0.00
PC:16816     Total:6      MisBP:0   MisRate:0.00%    MPKI:0.00
PC:167f0     Total:1412      MisBP:0   MisRate:0.00%    MPKI:0.00
PC:16814     Total:6      MisBP:0   MisRate:0.00%    MPKI:0.00
PC:16810     Total:6      MisBP:0   MisRate:0.00%    MPKI:0.00
PC:1680c     Total:6      MisBP:0   MisRate:0.00%    MPKI:0.00
PC:18fc6     Total:3      MisBP:0   MisRate:0.00%    MPKI:0.00
PC:16808     Total:6      MisBP:0   MisRate:0.00%    MPKI:0.00
PC:18fc2     Total:3      MisBP:0   MisRate:0.00%    MPKI:0.00
PC:16804     Total:6      MisBP:0   MisRate:0.00%    MPKI:0.00
PC:18fbe     Total:3      MisBP:0   MisRate:0.00%    MPKI:0.00
PC:16800     Total:6      MisBP:0   MisRate:0.00%    MPKI:0.00
PC:18f9e     Total:4      MisBP:0   MisRate:0.00%    MPKI:0.00
PC:16782     Total:1      MisBP:0   MisRate:0.00%    MPKI:0.00
PC:167a0     Total:9      MisBP:0   MisRate:0.00%    MPKI:0.00
PC:1679e     Total:9      MisBP:0   MisRate:0.00%    MPKI:0.00
PC:1679c     Total:9      MisBP:0   MisRate:0.00%    MPKI:0.00
PC:16798     Total:9      MisBP:0   MisRate:0.00%    MPKI:0.00
PC:16796     Total:2      MisBP:0   MisRate:0.00%    MPKI:0.00
PC:16794     Total:2      MisBP:0   MisRate:0.00%    MPKI:0.00
PC:16790     Total:2      MisBP:0   MisRate:0.00%    MPKI:0.00
PC:1678c     Total:2      MisBP:0   MisRate:0.00%    MPKI:0.00
PC:16788     Total:2      MisBP:0   MisRate:0.00%    MPKI:0.00
PC:16786     Total:2      MisBP:0   MisRate:0.00%    MPKI:0.00
PC:167a2     Total:9      MisBP:0   MisRate:0.00%    MPKI:0.00
PC:16780     Total:1      MisBP:0   MisRate:0.00%    MPKI:0.00
PC:1677c     Total:4      MisBP:0   MisRate:0.00%    MPKI:0.00
PC:1677a     Total:4      MisBP:0   MisRate:0.00%    MPKI:0.00
PC:16776     Total:5      MisBP:0   MisRate:0.00%    MPKI:0.00
PC:16772     Total:5      MisBP:0   MisRate:0.00%    MPKI:0.00
PC:1676e     Total:5      MisBP:0   MisRate:0.00%    MPKI:0.00
PC:15dde     Total:21877      MisBP:0   MisRate:0.00%    MPKI:0.00
PC:15dda     Total:21877      MisBP:0   MisRate:0.00%    MPKI:0.00
PC:15dd6     Total:21877      MisBP:0   MisRate:0.00%    MPKI:0.00
PC:15dd4     Total:21878      MisBP:0   MisRate:0.00%    MPKI:0.00
PC:167be     Total:304      MisBP:0   MisRate:0.00%    MPKI:0.00
PC:18faa     Total:4      MisBP:0   MisRate:0.00%    MPKI:0.00
PC:167ec     Total:1595      MisBP:0   MisRate:0.00%    MPKI:0.00
PC:18fa8     Total:4      MisBP:0   MisRate:0.00%    MPKI:0.00
PC:167ea     Total:1595      MisBP:0   MisRate:0.00%    MPKI:0.00
PC:18fa6     Total:4      MisBP:0   MisRate:0.00%    MPKI:0.00
PC:167e8     Total:1595      MisBP:0   MisRate:0.00%    MPKI:0.00
PC:18fa4     Total:4      MisBP:0   MisRate:0.00%    MPKI:0.00
PC:167e6     Total:1595      MisBP:0   MisRate:0.00%    MPKI:0.00
PC:18fa0     Total:4      MisBP:0   MisRate:0.00%    MPKI:0.00
PC:167e2     Total:1415      MisBP:0   MisRate:0.00%    MPKI:0.00
PC:1682c     Total:2      MisBP:0   MisRate:0.00%    MPKI:0.00
PC:167bc     Total:304      MisBP:0   MisRate:0.00%    MPKI:0.00
PC:167ba     Total:304      MisBP:0   MisRate:0.00%    MPKI:0.00
PC:167b6     Total:1342      MisBP:0   MisRate:0.00%    MPKI:0.00
PC:167b2     Total:2694      MisBP:0   MisRate:0.00%    MPKI:0.00
PC:167b0     Total:11      MisBP:0   MisRate:0.00%    MPKI:0.00
PC:167ac     Total:11      MisBP:0   MisRate:0.00%    MPKI:0.00
PC:167aa     Total:11      MisBP:0   MisRate:0.00%    MPKI:0.00
PC:167a8     Total:11      MisBP:0   MisRate:0.00%    MPKI:0.00
PC:167a6     Total:11      MisBP:0   MisRate:0.00%    MPKI:0.00
PC:140ac     Total:189      MisBP:0   MisRate:0.00%    MPKI:0.00
PC:140b8     Total:189      MisBP:0   MisRate:0.00%    MPKI:0.00
PC:16876     Total:66      MisBP:0   MisRate:0.00%    MPKI:0.00
PC:16872     Total:66      MisBP:0   MisRate:0.00%    MPKI:0.00
PC:1902e     Total:2      MisBP:0   MisRate:0.00%    MPKI:0.00
PC:140b2     Total:189      MisBP:0   MisRate:0.00%    MPKI:0.00
PC:16870     Total:66      MisBP:0   MisRate:0.00%    MPKI:0.00
PC:1902c     Total:2      MisBP:0   MisRate:0.00%    MPKI:0.00
PC:140b0     Total:189      MisBP:0   MisRate:0.00%    MPKI:0.00
PC:1686e     Total:66      MisBP:0   MisRate:0.00%    MPKI:0.00
PC:19028     Total:2      MisBP:0   MisRate:0.00%    MPKI:0.00
PC:19034     Total:2      MisBP:0   MisRate:0.00%    MPKI:0.00
PC:1686a     Total:132      MisBP:0   MisRate:0.00%    MPKI:0.00
PC:140aa     Total:189      MisBP:0   MisRate:0.00%    MPKI:0.00
PC:16868     Total:66      MisBP:0   MisRate:0.00%    MPKI:0.00
PC:19022     Total:2      MisBP:0   MisRate:0.00%    MPKI:0.00
PC:140a6     Total:189      MisBP:0   MisRate:0.00%    MPKI:0.00
PC:16864     Total:66      MisBP:0   MisRate:0.00%    MPKI:0.00
PC:1901e     Total:2      MisBP:0   MisRate:0.00%    MPKI:0.00
PC:140a2     Total:189      MisBP:0   MisRate:0.00%    MPKI:0.00
PC:16860     Total:3      MisBP:0   MisRate:0.00%    MPKI:0.00
PC:1901c     Total:2      MisBP:0   MisRate:0.00%    MPKI:0.00
PC:14c0c     Total:10004      MisBP:0   MisRate:0.00%    MPKI:0.00
PC:14c2a     Total:9682      MisBP:0   MisRate:0.00%    MPKI:0.00
PC:14c28     Total:9688      MisBP:0   MisRate:0.00%    MPKI:0.00
PC:14c24     Total:9690      MisBP:0   MisRate:0.00%    MPKI:0.00
PC:14c20     Total:9694      MisBP:0   MisRate:0.00%    MPKI:0.00
PC:14c1e     Total:9695      MisBP:0   MisRate:0.00%    MPKI:0.00
PC:14c1a     Total:9701      MisBP:0   MisRate:0.00%    MPKI:0.00
PC:14c16     Total:9704      MisBP:0   MisRate:0.00%    MPKI:0.00
PC:14c14     Total:9705      MisBP:0   MisRate:0.00%    MPKI:0.00
PC:14c12     Total:9998      MisBP:0   MisRate:0.00%    MPKI:0.00
PC:14c10     Total:10001      MisBP:0   MisRate:0.00%    MPKI:0.00
PC:1685e     Total:3      MisBP:0   MisRate:0.00%    MPKI:0.00
PC:14c0a     Total:10004      MisBP:0   MisRate:0.00%    MPKI:0.00
PC:14c08     Total:10004      MisBP:0   MisRate:0.00%    MPKI:0.00
PC:14c06     Total:10004      MisBP:0   MisRate:0.00%    MPKI:0.00
PC:14c02     Total:10004      MisBP:0   MisRate:0.00%    MPKI:0.00
PC:14bfc     Total:10645      MisBP:0   MisRate:0.00%    MPKI:0.00
PC:14bfa     Total:10645      MisBP:0   MisRate:0.00%    MPKI:0.00
PC:1687c     Total:66      MisBP:0   MisRate:0.00%    MPKI:0.00
PC:19038     Total:2      MisBP:0   MisRate:0.00%    MPKI:0.00
PC:140bc     Total:189      MisBP:0   MisRate:0.00%    MPKI:0.00
PC:1687a     Total:66      MisBP:0   MisRate:0.00%    MPKI:0.00
PC:18ffc     Total:3      MisBP:0   MisRate:0.00%    MPKI:0.00
PC:361f4     Total:181      MisBP:0   MisRate:0.00%    MPKI:0.00
PC:13026     Total:1      MisBP:0   MisRate:0.00%    MPKI:0.00
PC:361da     Total:253      MisBP:0   MisRate:0.00%    MPKI:0.00
PC:1300c     Total:1      MisBP:0   MisRate:0.00%    MPKI:0.00
PC:361d6     Total:254      MisBP:0   MisRate:0.00%    MPKI:0.00
PC:13008     Total:1      MisBP:0   MisRate:0.00%    MPKI:0.00
PC:361c4     Total:324      MisBP:0   MisRate:0.00%    MPKI:0.00
PC:12ff6     Total:6      MisBP:0   MisRate:0.00%    MPKI:0.00
PC:361b2     Total:5102      MisBP:0   MisRate:0.00%    MPKI:0.00
PC:12fe4     Total:1      MisBP:0   MisRate:0.00%    MPKI:0.00
PC:1302a     Total:1      MisBP:0   MisRate:0.00%    MPKI:0.00
PC:1683e     Total:11899      MisBP:0   MisRate:0.00%    MPKI:0.00
PC:18ff8     Total:3      MisBP:0   MisRate:0.00%    MPKI:0.00
PC:1683a     Total:11902      MisBP:0   MisRate:0.00%    MPKI:0.00
PC:16838     Total:2      MisBP:0   MisRate:0.00%    MPKI:0.00
PC:18ff2     Total:3      MisBP:0   MisRate:0.00%    MPKI:0.00
PC:16834     Total:2      MisBP:0   MisRate:0.00%    MPKI:0.00
PC:18fee     Total:3      MisBP:0   MisRate:0.00%    MPKI:0.00
PC:16830     Total:2      MisBP:0   MisRate:0.00%    MPKI:0.00
PC:18fec     Total:3      MisBP:0   MisRate:0.00%    MPKI:0.00
PC:1682e     Total:2      MisBP:0   MisRate:0.00%    MPKI:0.00
PC:19008     Total:2      MisBP:0   MisRate:0.00%    MPKI:0.00
PC:19018     Total:2      MisBP:0   MisRate:0.00%    MPKI:0.00
PC:1409c     Total:189      MisBP:0   MisRate:0.00%    MPKI:0.00
PC:1685a     Total:3      MisBP:0   MisRate:0.00%    MPKI:0.00
PC:1409a     Total:189      MisBP:0   MisRate:0.00%    MPKI:0.00
PC:16858     Total:3      MisBP:0   MisRate:0.00%    MPKI:0.00
PC:19012     Total:2      MisBP:0   MisRate:0.00%    MPKI:0.00
PC:14096     Total:189      MisBP:0   MisRate:0.00%    MPKI:0.00
PC:1900e     Total:2      MisBP:0   MisRate:0.00%    MPKI:0.00
PC:16850     Total:11423      MisBP:0   MisRate:0.00%    MPKI:0.00
PC:1684c     Total:11423      MisBP:0   MisRate:0.00%    MPKI:0.00
PC:15dd2     Total:21852      MisBP:0   MisRate:0.00%    MPKI:0.00
PC:1684a     Total:11423      MisBP:0   MisRate:0.00%    MPKI:0.00
PC:19004     Total:2      MisBP:0   MisRate:0.00%    MPKI:0.00
PC:16846     Total:22854      MisBP:0   MisRate:0.00%    MPKI:0.00
PC:16842     Total:11430      MisBP:0   MisRate:0.00%    MPKI:0.00
PC:18ffe     Total:2      MisBP:0   MisRate:0.00%    MPKI:0.00
PC:16840     Total:11430      MisBP:0   MisRate:0.00%    MPKI:0.00
PC:361fc     Total:166      MisBP:0   MisRate:0.00%    MPKI:0.00
PC:1302e     Total:1      MisBP:0   MisRate:0.00%    MPKI:0.00
PC:361f8     Total:166      MisBP:0   MisRate:0.00%    MPKI:0.00
PC:15b12     Total:21942      MisBP:0   MisRate:0.00%    MPKI:0.00
PC:15b5e     Total:22077      MisBP:0   MisRate:0.00%    MPKI:0.00
PC:1339a     Total:1      MisBP:0   MisRate:0.00%    MPKI:0.00
PC:15b58     Total:22038      MisBP:0   MisRate:0.00%    MPKI:0.00
PC:13394     Total:3      MisBP:0   MisRate:0.00%    MPKI:0.00
PC:15b52     Total:21941      MisBP:0   MisRate:0.00%    MPKI:0.00
PC:1338e     Total:3      MisBP:0   MisRate:0.00%    MPKI:0.00
PC:15b4c     Total:21942      MisBP:0   MisRate:0.00%    MPKI:0.00
PC:15b34     Total:22023      MisBP:0   MisRate:0.00%    MPKI:0.00
PC:15b2e     Total:22030      MisBP:0   MisRate:0.00%    MPKI:0.00
PC:15b16     Total:21955      MisBP:0   MisRate:0.00%    MPKI:0.00
PC:133a0     Total:1      MisBP:0   MisRate:0.00%    MPKI:0.00
PC:1334c     Total:12      MisBP:0   MisRate:0.00%    MPKI:0.00
PC:15b0a     Total:21935      MisBP:0   MisRate:0.00%    MPKI:0.00
PC:15b06     Total:21935      MisBP:0   MisRate:0.00%    MPKI:0.00
PC:13342     Total:222      MisBP:0   MisRate:0.00%    MPKI:0.00
PC:15b00     Total:21869      MisBP:0   MisRate:0.00%    MPKI:0.00
PC:13340     Total:222      MisBP:0   MisRate:0.00%    MPKI:0.00
PC:15afe     Total:21942      MisBP:0   MisRate:0.00%    MPKI:0.00
PC:1333e     Total:220      MisBP:0   MisRate:0.00%    MPKI:0.00
PC:15afc     Total:21942      MisBP:0   MisRate:0.00%    MPKI:0.00
PC:1333c     Total:220      MisBP:0   MisRate:0.00%    MPKI:0.00
PC:15bf2     Total:22214      MisBP:0   MisRate:0.00%    MPKI:0.00
PC:15c82     Total:21925      MisBP:0   MisRate:0.00%    MPKI:0.00
PC:15c7e     Total:22021      MisBP:0   MisRate:0.00%    MPKI:0.00
PC:15c5c     Total:22149      MisBP:0   MisRate:0.00%    MPKI:0.00
PC:15c3c     Total:22282      MisBP:0   MisRate:0.00%    MPKI:0.00
PC:15c16     Total:22257      MisBP:0   MisRate:0.00%    MPKI:0.00
PC:15c10     Total:22152      MisBP:0   MisRate:0.00%    MPKI:0.00
PC:15c0c     Total:22111      MisBP:0   MisRate:0.00%    MPKI:0.00
PC:15c08     Total:22111      MisBP:0   MisRate:0.00%    MPKI:0.00
PC:15c00     Total:22111      MisBP:0   MisRate:0.00%    MPKI:0.00
PC:15bfa     Total:22243      MisBP:0   MisRate:0.00%    MPKI:0.00
PC:15afa     Total:21941      MisBP:0   MisRate:0.00%    MPKI:0.00
PC:15bde     Total:22141      MisBP:0   MisRate:0.00%    MPKI:0.00
PC:15bda     Total:22141      MisBP:0   MisRate:0.00%    MPKI:0.00
PC:15bae     Total:22122      MisBP:0   MisRate:0.00%    MPKI:0.00
PC:15b9a     Total:22173      MisBP:0   MisRate:0.00%    MPKI:0.00
PC:15b92     Total:22109      MisBP:0   MisRate:0.00%    MPKI:0.00
PC:15b7e     Total:22077      MisBP:0   MisRate:0.00%    MPKI:0.00
PC:133aa     Total:1      MisBP:0   MisRate:0.00%    MPKI:0.00
PC:15b68     Total:22074      MisBP:0   MisRate:0.00%    MPKI:0.00
PC:133a4     Total:1      MisBP:0   MisRate:0.00%    MPKI:0.00
PC:15b62     Total:22074      MisBP:0   MisRate:0.00%    MPKI:0.00
PC:15ac4     Total:21740      MisBP:0   MisRate:0.00%    MPKI:0.00
PC:15ade     Total:21792      MisBP:0   MisRate:0.00%    MPKI:0.00
PC:15adc     Total:21792      MisBP:0   MisRate:0.00%    MPKI:0.00
PC:15ada     Total:21753      MisBP:0   MisRate:0.00%    MPKI:0.00
PC:15ad6     Total:21753      MisBP:0   MisRate:0.00%    MPKI:0.00
PC:15ad2     Total:21753      MisBP:0   MisRate:0.00%    MPKI:0.00
PC:15ad0     Total:21780      MisBP:0   MisRate:0.00%    MPKI:0.00
PC:15ace     Total:21772      MisBP:0   MisRate:0.00%    MPKI:0.00
PC:15aca     Total:21772      MisBP:0   MisRate:0.00%    MPKI:0.00
PC:15ac8     Total:21772      MisBP:0   MisRate:0.00%    MPKI:0.00
PC:15ac6     Total:21772      MisBP:0   MisRate:0.00%    MPKI:0.00
PC:15ae0     Total:21792      MisBP:0   MisRate:0.00%    MPKI:0.00
PC:15ac2     Total:21740      MisBP:0   MisRate:0.00%    MPKI:0.00
PC:15ac0     Total:21745      MisBP:0   MisRate:0.00%    MPKI:0.00
PC:15abe     Total:21784      MisBP:0   MisRate:0.00%    MPKI:0.00
PC:15abc     Total:21784      MisBP:0   MisRate:0.00%    MPKI:0.00
PC:15aba     Total:21784      MisBP:0   MisRate:0.00%    MPKI:0.00
PC:15ab8     Total:21784      MisBP:0   MisRate:0.00%    MPKI:0.00
PC:15ab6     Total:21784      MisBP:0   MisRate:0.00%    MPKI:0.00
PC:15ab4     Total:21806      MisBP:0   MisRate:0.00%    MPKI:0.00
PC:15ab2     Total:21806      MisBP:0   MisRate:0.00%    MPKI:0.00
PC:15aae     Total:21807      MisBP:0   MisRate:0.00%    MPKI:0.00
PC:13330     Total:221      MisBP:0   MisRate:0.00%    MPKI:0.00
PC:1333a     Total:220      MisBP:0   MisRate:0.00%    MPKI:0.00
PC:15af8     Total:21941      MisBP:0   MisRate:0.00%    MPKI:0.00
PC:13338     Total:220      MisBP:0   MisRate:0.00%    MPKI:0.00
PC:15af6     Total:21884      MisBP:0   MisRate:0.00%    MPKI:0.00
PC:13336     Total:220      MisBP:0   MisRate:0.00%    MPKI:0.00
PC:15af4     Total:21908      MisBP:0   MisRate:0.00%    MPKI:0.00
PC:13334     Total:220      MisBP:0   MisRate:0.00%    MPKI:0.00
PC:15af2     Total:21908      MisBP:0   MisRate:0.00%    MPKI:0.00
PC:13332     Total:221      MisBP:0   MisRate:0.00%    MPKI:0.00
PC:15af0     Total:21908      MisBP:0   MisRate:0.00%    MPKI:0.00
PC:14a20     Total:1879184      MisBP:0   MisRate:0.00%    MPKI:0.00
PC:15aee     Total:21872      MisBP:0   MisRate:0.00%    MPKI:0.00
PC:1332e     Total:221      MisBP:0   MisRate:0.00%    MPKI:0.00
PC:15aec     Total:21872      MisBP:0   MisRate:0.00%    MPKI:0.00
PC:1332c     Total:1109      MisBP:0   MisRate:0.00%    MPKI:0.00
PC:15aea     Total:21881      MisBP:0   MisRate:0.00%    MPKI:0.00
PC:15ae8     Total:21881      MisBP:0   MisRate:0.00%    MPKI:0.00
PC:15ae6     Total:21806      MisBP:0   MisRate:0.00%    MPKI:0.00
PC:15ae4     Total:21829      MisBP:0   MisRate:0.00%    MPKI:0.00
PC:15ae2     Total:21792      MisBP:0   MisRate:0.00%    MPKI:0.00
PC:3621c     Total:28      MisBP:0   MisRate:0.00%    MPKI:0.00
PC:15da0     Total:21836      MisBP:0   MisRate:0.00%    MPKI:0.00
PC:15d9c     Total:21836      MisBP:0   MisRate:0.00%    MPKI:0.00
PC:15d96     Total:21894      MisBP:0   MisRate:0.00%    MPKI:0.00
PC:3622c     Total:41      MisBP:0   MisRate:0.00%    MPKI:0.00
PC:15d86     Total:21864      MisBP:0   MisRate:0.00%    MPKI:0.00
PC:15d7e     Total:21864      MisBP:0   MisRate:0.00%    MPKI:0.00
PC:36222     Total:27      MisBP:0   MisRate:0.00%    MPKI:0.00
PC:15d7c     Total:21906      MisBP:0   MisRate:0.00%    MPKI:0.00
PC:36220     Total:27      MisBP:0   MisRate:0.00%    MPKI:0.00
PC:15d7a     Total:21940      MisBP:0   MisRate:0.00%    MPKI:0.00
PC:15daa     Total:21924      MisBP:0   MisRate:0.00%    MPKI:0.00
PC:15d76     Total:21895      MisBP:0   MisRate:0.00%    MPKI:0.00
PC:3621a     Total:28      MisBP:0   MisRate:0.00%    MPKI:0.00
PC:15d74     Total:21914      MisBP:0   MisRate:0.00%    MPKI:0.00
PC:15d72     Total:21914      MisBP:0   MisRate:0.00%    MPKI:0.00
PC:36214     Total:32      MisBP:0   MisRate:0.00%    MPKI:0.00
PC:15d6e     Total:21914      MisBP:0   MisRate:0.00%    MPKI:0.00
PC:15d6c     Total:21914      MisBP:0   MisRate:0.00%    MPKI:0.00
PC:36210     Total:32      MisBP:0   MisRate:0.00%    MPKI:0.00
PC:15d6a     Total:21914      MisBP:0   MisRate:0.00%    MPKI:0.00
PC:3620e     Total:32      MisBP:0   MisRate:0.00%    MPKI:0.00
PC:3625c     Total:108      MisBP:0   MisRate:0.00%    MPKI:0.00
PC:15dce     Total:21852      MisBP:0   MisRate:0.00%    MPKI:0.00
PC:15dca     Total:21852      MisBP:0   MisRate:0.00%    MPKI:0.00
PC:15dc8     Total:21852      MisBP:0   MisRate:0.00%    MPKI:0.00
PC:15dc6     Total:21852      MisBP:0   MisRate:0.00%    MPKI:0.00
PC:15dc4     Total:21819      MisBP:0   MisRate:0.00%    MPKI:0.00
PC:15dc2     Total:21819      MisBP:0   MisRate:0.00%    MPKI:0.00
PC:15dc0     Total:21819      MisBP:0   MisRate:0.00%    MPKI:0.00
PC:15dbe     Total:21887      MisBP:0   MisRate:0.00%    MPKI:0.00
PC:15dbc     Total:21887      MisBP:0   MisRate:0.00%    MPKI:0.00
PC:15dba     Total:21888      MisBP:0   MisRate:0.00%    MPKI:0.00
PC:15d68     Total:21914      MisBP:0   MisRate:0.00%    MPKI:0.00
PC:1308e     Total:46018      MisBP:0   MisRate:0.00%    MPKI:0.00
PC:15db6     Total:21904      MisBP:0   MisRate:0.00%    MPKI:0.00
PC:15db4     Total:21904      MisBP:0   MisRate:0.00%    MPKI:0.00
PC:36258     Total:52      MisBP:0   MisRate:0.00%    MPKI:0.00
PC:15db2     Total:21904      MisBP:0   MisRate:0.00%    MPKI:0.00
PC:15db0     Total:21904      MisBP:0   MisRate:0.00%    MPKI:0.00
PC:36252     Total:22      MisBP:0   MisRate:0.00%    MPKI:0.00
PC:13084     Total:910991      MisBP:0   MisRate:0.00%    MPKI:0.00
PC:15dac     Total:21905      MisBP:0   MisRate:0.00%    MPKI:0.00
PC:122a2     Total:550589      MisBP:0   MisRate:0.00%    MPKI:0.00
PC:15cf2     Total:21847      MisBP:0   MisRate:0.00%    MPKI:0.00
PC:15ce6     Total:21830      MisBP:0   MisRate:0.00%    MPKI:0.00
PC:15cde     Total:21901      MisBP:0   MisRate:0.00%    MPKI:0.00
PC:15cd4     Total:21839      MisBP:0   MisRate:0.00%    MPKI:0.00
PC:122ac     Total:549605      MisBP:0   MisRate:0.00%    MPKI:0.00
PC:14a6a     Total:1402597      MisBP:0   MisRate:0.00%    MPKI:0.00
PC:15cce     Total:21834      MisBP:0   MisRate:0.00%    MPKI:0.00
PC:122a6     Total:550108      MisBP:0   MisRate:0.00%    MPKI:0.00
PC:14a64     Total:706282      MisBP:0   MisRate:0.00%    MPKI:0.00
PC:15cca     Total:21834      MisBP:0   MisRate:0.00%    MPKI:0.00
PC:15cf6     Total:21847      MisBP:0   MisRate:0.00%    MPKI:0.00
PC:14a60     Total:706955      MisBP:0   MisRate:0.00%    MPKI:0.00
PC:15ca0     Total:21852      MisBP:0   MisRate:0.00%    MPKI:0.00
PC:12278     Total:169515      MisBP:0   MisRate:0.00%    MPKI:0.00
PC:14a36     Total:335149      MisBP:0   MisRate:0.00%    MPKI:0.00
PC:15c98     Total:21852      MisBP:0   MisRate:0.00%    MPKI:0.00
PC:15c90     Total:21899      MisBP:0   MisRate:0.00%    MPKI:0.00
PC:12268     Total:96194      MisBP:0   MisRate:0.00%    MPKI:0.00
PC:14a26     Total:626113      MisBP:0   MisRate:0.00%    MPKI:0.00
PC:15c8a     Total:21899      MisBP:0   MisRate:0.00%    MPKI:0.00
PC:12262     Total:96256      MisBP:0   MisRate:0.00%    MPKI:0.00
PC:361e0     Total:253      MisBP:0   MisRate:0.00%    MPKI:0.00
PC:15d60     Total:21843      MisBP:0   MisRate:0.00%    MPKI:0.00
PC:15d5c     Total:21809      MisBP:0   MisRate:0.00%    MPKI:0.00
PC:15d58     Total:21809      MisBP:0   MisRate:0.00%    MPKI:0.00
PC:361fa     Total:166      MisBP:0   MisRate:0.00%    MPKI:0.00
PC:1302c     Total:1      MisBP:0   MisRate:0.00%    MPKI:0.00
PC:15d54     Total:21810      MisBP:0   MisRate:0.00%    MPKI:0.00
PC:15d4c     Total:21853      MisBP:0   MisRate:0.00%    MPKI:0.00
PC:361e4     Total:252      MisBP:0   MisRate:0.00%    MPKI:0.00
PC:13016     Total:1      MisBP:0   MisRate:0.00%    MPKI:0.00
PC:15d3e     Total:21874      MisBP:0   MisRate:0.00%    MPKI:0.00
PC:14c2c     Total:9431      MisBP:0   MisRate:0.00%    MPKI:0.00
PC:13012     Total:1      MisBP:0   MisRate:0.00%    MPKI:0.00
PC:15d3a     Total:21843      MisBP:0   MisRate:0.00%    MPKI:0.00
PC:15d2e     Total:21846      MisBP:0   MisRate:0.00%    MPKI:0.00
PC:361b6     Total:455      MisBP:0   MisRate:0.00%    MPKI:0.00
PC:12fe8     Total:1      MisBP:0   MisRate:0.00%    MPKI:0.00
PC:15d10     Total:21883      MisBP:0   MisRate:0.00%    MPKI:0.00
PC:15d06     Total:21883      MisBP:0   MisRate:0.00%    MPKI:0.00
PC:15cfe     Total:21901      MisBP:0   MisRate:0.00%    MPKI:0.00
PC:15cfa     Total:21878      MisBP:0   MisRate:0.00%    MPKI:0.00
PC:14e2a     Total:12874      MisBP:0   MisRate:0.00%    MPKI:0.00
PC:14e40     Total:12426      MisBP:0   MisRate:0.00%    MPKI:0.00
PC:14e3e     Total:12951      MisBP:0   MisRate:0.00%    MPKI:0.00
PC:14e3a     Total:12953      MisBP:0   MisRate:0.00%    MPKI:0.00
PC:14e36     Total:12869      MisBP:0   MisRate:0.00%    MPKI:0.00
PC:12676     Total:1      MisBP:0   MisRate:0.00%    MPKI:0.00
PC:14e34     Total:12870      MisBP:0   MisRate:0.00%    MPKI:0.00
PC:12672     Total:1      MisBP:0   MisRate:0.00%    MPKI:0.00
PC:14e30     Total:12872      MisBP:0   MisRate:0.00%    MPKI:0.00
PC:12670     Total:1      MisBP:0   MisRate:0.00%    MPKI:0.00
PC:14e2e     Total:12874      MisBP:0   MisRate:0.00%    MPKI:0.00
PC:14e44     Total:12425      MisBP:0   MisRate:0.00%    MPKI:0.00
PC:14e26     Total:12749      MisBP:0   MisRate:0.00%    MPKI:0.00
PC:12666     Total:1      MisBP:0   MisRate:0.00%    MPKI:0.00
PC:14e24     Total:12750      MisBP:0   MisRate:0.00%    MPKI:0.00
PC:12662     Total:1      MisBP:0   MisRate:0.00%    MPKI:0.00
PC:14e20     Total:12750      MisBP:0   MisRate:0.00%    MPKI:0.00
PC:14e1e     Total:12750      MisBP:0   MisRate:0.00%    MPKI:0.00
PC:1265c     Total:1      MisBP:0   MisRate:0.00%    MPKI:0.00
PC:14e1a     Total:12750      MisBP:0   MisRate:0.00%    MPKI:0.00
PC:14e16     Total:12600      MisBP:0   MisRate:0.00%    MPKI:0.00
PC:12656     Total:1      MisBP:0   MisRate:0.00%    MPKI:0.00
PC:14e66     Total:12677      MisBP:0   MisRate:0.00%    MPKI:0.00
PC:14e86     Total:12488      MisBP:0   MisRate:0.00%    MPKI:0.00
PC:14e84     Total:12489      MisBP:0   MisRate:0.00%    MPKI:0.00
PC:14e80     Total:12490      MisBP:0   MisRate:0.00%    MPKI:0.00
PC:14e7e     Total:12967      MisBP:0   MisRate:0.00%    MPKI:0.00
PC:14e7a     Total:12968      MisBP:0   MisRate:0.00%    MPKI:0.00
PC:14e76     Total:12823      MisBP:0   MisRate:0.00%    MPKI:0.00
PC:14e74     Total:12823      MisBP:0   MisRate:0.00%    MPKI:0.00
PC:14e70     Total:12824      MisBP:0   MisRate:0.00%    MPKI:0.00
PC:14e6e     Total:12824      MisBP:0   MisRate:0.00%    MPKI:0.00
PC:14e6a     Total:12826      MisBP:0   MisRate:0.00%    MPKI:0.00
PC:14e14     Total:12602      MisBP:0   MisRate:0.00%    MPKI:0.00
PC:14e64     Total:12678      MisBP:0   MisRate:0.00%    MPKI:0.00
PC:14e60     Total:12678      MisBP:0   MisRate:0.00%    MPKI:0.00
PC:14e5e     Total:12681      MisBP:0   MisRate:0.00%    MPKI:0.00
PC:14e5a     Total:12682      MisBP:0   MisRate:0.00%    MPKI:0.00
PC:14e56     Total:12398      MisBP:0   MisRate:0.00%    MPKI:0.00
PC:14e54     Total:12400      MisBP:0   MisRate:0.00%    MPKI:0.00
PC:14e50     Total:12402      MisBP:0   MisRate:0.00%    MPKI:0.00
PC:14e4e     Total:12403      MisBP:0   MisRate:0.00%    MPKI:0.00
PC:14e4a     Total:12404      MisBP:0   MisRate:0.00%    MPKI:0.00
PC:14e46     Total:12425      MisBP:0   MisRate:0.00%    MPKI:0.00
PC:14dba     Total:13031      MisBP:0   MisRate:0.00%    MPKI:0.00
PC:14dd6     Total:12951      MisBP:0   MisRate:0.00%    MPKI:0.00
PC:14dd2     Total:12952      MisBP:0   MisRate:0.00%    MPKI:0.00
PC:14dd0     Total:12953      MisBP:0   MisRate:0.00%    MPKI:0.00
PC:14dce     Total:12954      MisBP:0   MisRate:0.00%    MPKI:0.00
PC:14dca     Total:13002      MisBP:0   MisRate:0.00%    MPKI:0.00
PC:14dc8     Total:13002      MisBP:0   MisRate:0.00%    MPKI:0.00
PC:14dc4     Total:13002      MisBP:0   MisRate:0.00%    MPKI:0.00
PC:14dc2     Total:13003      MisBP:0   MisRate:0.00%    MPKI:0.00
PC:14dc0     Total:13006      MisBP:0   MisRate:0.00%    MPKI:0.00
PC:14dbc     Total:13031      MisBP:0   MisRate:0.00%    MPKI:0.00
PC:14dd8     Total:12951      MisBP:0   MisRate:0.00%    MPKI:0.00
PC:14db6     Total:13032      MisBP:0   MisRate:0.00%    MPKI:0.00
PC:14db4     Total:13032      MisBP:0   MisRate:0.00%    MPKI:0.00
PC:14db2     Total:13033      MisBP:0   MisRate:0.00%    MPKI:0.00
PC:14dae     Total:12984      MisBP:0   MisRate:0.00%    MPKI:0.00
PC:14dac     Total:12985      MisBP:0   MisRate:0.00%    MPKI:0.00
PC:14da8     Total:12986      MisBP:0   MisRate:0.00%    MPKI:0.00
PC:14da6     Total:12987      MisBP:0   MisRate:0.00%    MPKI:0.00
PC:14da4     Total:12989      MisBP:0   MisRate:0.00%    MPKI:0.00
PC:125e2     Total:2      MisBP:0   MisRate:0.00%    MPKI:0.00
PC:14da0     Total:12546      MisBP:0   MisRate:0.00%    MPKI:0.00
PC:14df6     Total:13015      MisBP:0   MisRate:0.00%    MPKI:0.00
PC:12652     Total:1      MisBP:0   MisRate:0.00%    MPKI:0.00
PC:14e10     Total:12604      MisBP:0   MisRate:0.00%    MPKI:0.00
PC:14e0e     Total:12607      MisBP:0   MisRate:0.00%    MPKI:0.00
PC:14e0a     Total:12607      MisBP:0   MisRate:0.00%    MPKI:0.00
PC:12648     Total:1      MisBP:0   MisRate:0.00%    MPKI:0.00
PC:14e06     Total:12667      MisBP:0   MisRate:0.00%    MPKI:0.00
PC:14e04     Total:12668      MisBP:0   MisRate:0.00%    MPKI:0.00
PC:14e00     Total:12669      MisBP:0   MisRate:0.00%    MPKI:0.00
PC:14dfe     Total:13111      MisBP:0   MisRate:0.00%    MPKI:0.00
PC:14dfa     Total:13112      MisBP:0   MisRate:0.00%    MPKI:0.00
PC:14e8a     Total:12419      MisBP:0   MisRate:0.00%    MPKI:0.00
PC:14df4     Total:13015      MisBP:0   MisRate:0.00%    MPKI:0.00
PC:14df0     Total:13015      MisBP:0   MisRate:0.00%    MPKI:0.00
PC:14dee     Total:13016      MisBP:0   MisRate:0.00%    MPKI:0.00
PC:14dea     Total:13018      MisBP:0   MisRate:0.00%    MPKI:0.00
PC:14de6     Total:13105      MisBP:0   MisRate:0.00%    MPKI:0.00
PC:14de4     Total:13105      MisBP:0   MisRate:0.00%    MPKI:0.00
PC:14de0     Total:13105      MisBP:0   MisRate:0.00%    MPKI:0.00
PC:14dde     Total:13106      MisBP:0   MisRate:0.00%    MPKI:0.00
PC:14ddc     Total:13109      MisBP:0   MisRate:0.00%    MPKI:0.00
PC:14f28     Total:3      MisBP:0   MisRate:0.00%    MPKI:0.00
PC:13194     Total:751      MisBP:0   MisRate:0.00%    MPKI:0.00
PC:13190     Total:752      MisBP:0   MisRate:0.00%    MPKI:0.00
PC:1318c     Total:752      MisBP:0   MisRate:0.00%    MPKI:0.00
PC:13188     Total:752      MisBP:0   MisRate:0.00%    MPKI:0.00
PC:13178     Total:788      MisBP:0   MisRate:0.00%    MPKI:0.00
PC:14f3c     Total:2      MisBP:0   MisRate:0.00%    MPKI:0.00
PC:14f38     Total:2      MisBP:0   MisRate:0.00%    MPKI:0.00
PC:14f34     Total:2      MisBP:0   MisRate:0.00%    MPKI:0.00
PC:14f30     Total:2      MisBP:0   MisRate:0.00%    MPKI:0.00
PC:14f2c     Total:3      MisBP:0   MisRate:0.00%    MPKI:0.00
PC:13198     Total:751      MisBP:0   MisRate:0.00%    MPKI:0.00
PC:14f24     Total:18      MisBP:0   MisRate:0.00%    MPKI:0.00
PC:14f20     Total:18      MisBP:0   MisRate:0.00%    MPKI:0.00
PC:14f1c     Total:19      MisBP:0   MisRate:0.00%    MPKI:0.00
PC:14f1a     Total:19      MisBP:0   MisRate:0.00%    MPKI:0.00
PC:14f14     Total:12454      MisBP:0   MisRate:0.00%    MPKI:0.00
PC:14f10     Total:12457      MisBP:0   MisRate:0.00%    MPKI:0.00
PC:14f0e     Total:12458      MisBP:0   MisRate:0.00%    MPKI:0.00
PC:14f0a     Total:12459      MisBP:0   MisRate:0.00%    MPKI:0.00
PC:14f06     Total:12480      MisBP:0   MisRate:0.00%    MPKI:0.00
PC:14f04     Total:12480      MisBP:0   MisRate:0.00%    MPKI:0.00
PC:140c8     Total:232      MisBP:0   MisRate:0.00%    MPKI:0.00
PC:1689e     Total:5      MisBP:0   MisRate:0.00%    MPKI:0.00
PC:1689c     Total:5      MisBP:0   MisRate:0.00%    MPKI:0.00
PC:16898     Total:5      MisBP:0   MisRate:0.00%    MPKI:0.00
PC:16894     Total:67      MisBP:0   MisRate:0.00%    MPKI:0.00
PC:16890     Total:62      MisBP:0   MisRate:0.00%    MPKI:0.00
PC:140d0     Total:236      MisBP:0   MisRate:0.00%    MPKI:0.00
PC:1688e     Total:62      MisBP:0   MisRate:0.00%    MPKI:0.00
PC:140cc     Total:232      MisBP:0   MisRate:0.00%    MPKI:0.00
PC:1688a     Total:62      MisBP:0   MisRate:0.00%    MPKI:0.00
PC:16888     Total:62      MisBP:0   MisRate:0.00%    MPKI:0.00
PC:14f00     Total:12482      MisBP:0   MisRate:0.00%    MPKI:0.00
PC:16886     Total:62      MisBP:0   MisRate:0.00%    MPKI:0.00
PC:140c4     Total:229      MisBP:0   MisRate:0.00%    MPKI:0.00
PC:16882     Total:62      MisBP:0   MisRate:0.00%    MPKI:0.00
PC:1903c     Total:2      MisBP:0   MisRate:0.00%    MPKI:0.00
PC:140c0     Total:1      MisBP:0   MisRate:0.00%    MPKI:0.00
PC:1687e     Total:62      MisBP:0   MisRate:0.00%    MPKI:0.00
PC:29758     Total:189      MisBP:0   MisRate:0.00%    MPKI:0.00
PC:15650     Total:21854      MisBP:0   MisRate:0.00%    MPKI:0.00
PC:131aa     Total:1      MisBP:0   MisRate:0.00%    MPKI:0.00
PC:131a4     Total:1      MisBP:0   MisRate:0.00%    MPKI:0.00
PC:14eae     Total:12823      MisBP:0   MisRate:0.00%    MPKI:0.00
PC:14ece     Total:12339      MisBP:0   MisRate:0.00%    MPKI:0.00
PC:14eca     Total:12340      MisBP:0   MisRate:0.00%    MPKI:0.00
PC:14ec6     Total:12438      MisBP:0   MisRate:0.00%    MPKI:0.00
PC:14ec4     Total:12438      MisBP:0   MisRate:0.00%    MPKI:0.00
PC:14ec0     Total:12438      MisBP:0   MisRate:0.00%    MPKI:0.00
PC:14ebe     Total:12927      MisBP:0   MisRate:0.00%    MPKI:0.00
PC:14eba     Total:12928      MisBP:0   MisRate:0.00%    MPKI:0.00
PC:14eb6     Total:12822      MisBP:0   MisRate:0.00%    MPKI:0.00
PC:14eb4     Total:12822      MisBP:0   MisRate:0.00%    MPKI:0.00
PC:14eb0     Total:12823      MisBP:0   MisRate:0.00%    MPKI:0.00
PC:14ed0     Total:12339      MisBP:0   MisRate:0.00%    MPKI:0.00
PC:14eaa     Total:12823      MisBP:0   MisRate:0.00%    MPKI:0.00
PC:14ea6     Total:12615      MisBP:0   MisRate:0.00%    MPKI:0.00
PC:14ea4     Total:12617      MisBP:0   MisRate:0.00%    MPKI:0.00
PC:14ea0     Total:12617      MisBP:0   MisRate:0.00%    MPKI:0.00
PC:14e9e     Total:12619      MisBP:0   MisRate:0.00%    MPKI:0.00
PC:14e9a     Total:12620      MisBP:0   MisRate:0.00%    MPKI:0.00
PC:14e96     Total:12417      MisBP:0   MisRate:0.00%    MPKI:0.00
PC:14e94     Total:12417      MisBP:0   MisRate:0.00%    MPKI:0.00
PC:14e90     Total:12417      MisBP:0   MisRate:0.00%    MPKI:0.00
PC:14e8e     Total:12419      MisBP:0   MisRate:0.00%    MPKI:0.00
PC:12728     Total:194      MisBP:0   MisRate:0.00%    MPKI:0.00
PC:14efe     Total:12961      MisBP:0   MisRate:0.00%    MPKI:0.00
PC:14efa     Total:12964      MisBP:0   MisRate:0.00%    MPKI:0.00
PC:14ef6     Total:12700      MisBP:0   MisRate:0.00%    MPKI:0.00
PC:12736     Total:597      MisBP:0   MisRate:0.00%    MPKI:0.00
PC:14ef4     Total:12700      MisBP:0   MisRate:0.00%    MPKI:0.00
PC:14ef0     Total:12701      MisBP:0   MisRate:0.00%    MPKI:0.00
PC:12730     Total:194      MisBP:0   MisRate:0.00%    MPKI:0.00
PC:14eee     Total:12704      MisBP:0   MisRate:0.00%    MPKI:0.00
PC:1272c     Total:194      MisBP:0   MisRate:0.00%    MPKI:0.00
PC:14eea     Total:12705      MisBP:0   MisRate:0.00%    MPKI:0.00
PC:125e0     Total:2      MisBP:0   MisRate:0.00%    MPKI:0.00
PC:14ee6     Total:12523      MisBP:0   MisRate:0.00%    MPKI:0.00
PC:14ee4     Total:12524      MisBP:0   MisRate:0.00%    MPKI:0.00
PC:12722     Total:231      MisBP:0   MisRate:0.00%    MPKI:0.00
PC:14ee0     Total:12524      MisBP:0   MisRate:0.00%    MPKI:0.00
PC:12720     Total:693      MisBP:0   MisRate:0.00%    MPKI:0.00
PC:14ede     Total:12524      MisBP:0   MisRate:0.00%    MPKI:0.00
PC:14eda     Total:12525      MisBP:0   MisRate:0.00%    MPKI:0.00
PC:14ed6     Total:12336      MisBP:0   MisRate:0.00%    MPKI:0.00
PC:14ed4     Total:12336      MisBP:0   MisRate:0.00%    MPKI:0.00
PC:14cc4     Total:12513      MisBP:0   MisRate:0.00%    MPKI:0.00
PC:14ce0     Total:12959      MisBP:0   MisRate:0.00%    MPKI:0.00
PC:14cdc     Total:12609      MisBP:0   MisRate:0.00%    MPKI:0.00
PC:14cda     Total:12609      MisBP:0   MisRate:0.00%    MPKI:0.00
PC:14cd6     Total:12609      MisBP:0   MisRate:0.00%    MPKI:0.00
PC:14cd4     Total:12611      MisBP:0   MisRate:0.00%    MPKI:0.00
PC:14cd2     Total:12613      MisBP:0   MisRate:0.00%    MPKI:0.00
PC:14cce     Total:12508      MisBP:0   MisRate:0.00%    MPKI:0.00
PC:14ccc     Total:12509      MisBP:0   MisRate:0.00%    MPKI:0.00
PC:14cc8     Total:12510      MisBP:0   MisRate:0.00%    MPKI:0.00
PC:14cc6     Total:12510      MisBP:0   MisRate:0.00%    MPKI:0.00
PC:14ce2     Total:12958      MisBP:0   MisRate:0.00%    MPKI:0.00
PC:14cc0     Total:12572      MisBP:0   MisRate:0.00%    MPKI:0.00
PC:14cbe     Total:13030      MisBP:0   MisRate:0.00%    MPKI:0.00
PC:14cba     Total:13032      MisBP:0   MisRate:0.00%    MPKI:0.00
PC:14cb8     Total:13032      MisBP:0   MisRate:0.00%    MPKI:0.00
PC:14cb6     Total:13034      MisBP:0   MisRate:0.00%    MPKI:0.00
PC:14cb2     Total:13140      MisBP:0   MisRate:0.00%    MPKI:0.00
PC:14cb0     Total:13143      MisBP:0   MisRate:0.00%    MPKI:0.00
PC:14cac     Total:13143      MisBP:0   MisRate:0.00%    MPKI:0.00
PC:14caa     Total:13146      MisBP:0   MisRate:0.00%    MPKI:0.00
PC:14ca8     Total:13147      MisBP:0   MisRate:0.00%    MPKI:0.00
PC:14cfe     Total:13109      MisBP:0   MisRate:0.00%    MPKI:0.00
PC:14d0e     Total:12650      MisBP:0   MisRate:0.00%    MPKI:0.00
PC:1254e     Total:1      MisBP:0   MisRate:0.00%    MPKI:0.00
PC:14d0c     Total:12650      MisBP:0   MisRate:0.00%    MPKI:0.00
PC:14d0a     Total:12651      MisBP:0   MisRate:0.00%    MPKI:0.00
PC:12548     Total:1      MisBP:0   MisRate:0.00%    MPKI:0.00
PC:14d06     Total:12621      MisBP:0   MisRate:0.00%    MPKI:0.00
PC:14d04     Total:12621      MisBP:0   MisRate:0.00%    MPKI:0.00
PC:12542     Total:1      MisBP:0   MisRate:0.00%    MPKI:0.00
PC:14d00     Total:12621      MisBP:0   MisRate:0.00%    MPKI:0.00
PC:12540     Total:727      MisBP:0   MisRate:0.00%    MPKI:0.00
PC:14ca4     Total:12893      MisBP:0   MisRate:0.00%    MPKI:0.00
PC:1253e     Total:740      MisBP:0   MisRate:0.00%    MPKI:0.00
PC:14cfc     Total:13110      MisBP:0   MisRate:0.00%    MPKI:0.00
PC:14cf8     Total:12979      MisBP:0   MisRate:0.00%    MPKI:0.00
PC:14cf6     Total:12979      MisBP:0   MisRate:0.00%    MPKI:0.00
PC:14cf2     Total:12981      MisBP:0   MisRate:0.00%    MPKI:0.00
PC:14cf0     Total:12981      MisBP:0   MisRate:0.00%    MPKI:0.00
PC:14cee     Total:12983      MisBP:0   MisRate:0.00%    MPKI:0.00
PC:14cea     Total:12956      MisBP:0   MisRate:0.00%    MPKI:0.00
PC:14ce8     Total:12956      MisBP:0   MisRate:0.00%    MPKI:0.00
PC:14ce4     Total:12957      MisBP:0   MisRate:0.00%    MPKI:0.00
PC:14c4a     Total:10250      MisBP:0   MisRate:0.00%    MPKI:0.00
PC:14c66     Total:11712      MisBP:0   MisRate:0.00%    MPKI:0.00
PC:14c64     Total:11712      MisBP:0   MisRate:0.00%    MPKI:0.00
PC:14c62     Total:11712      MisBP:0   MisRate:0.00%    MPKI:0.00
PC:14c5e     Total:11071      MisBP:0   MisRate:0.00%    MPKI:0.00
PC:14c5c     Total:11071      MisBP:0   MisRate:0.00%    MPKI:0.00
PC:14c58     Total:11071      MisBP:0   MisRate:0.00%    MPKI:0.00
PC:14c56     Total:11071      MisBP:0   MisRate:0.00%    MPKI:0.00
PC:14c54     Total:11071      MisBP:0   MisRate:0.00%    MPKI:0.00
PC:14c50     Total:10250      MisBP:0   MisRate:0.00%    MPKI:0.00
PC:14c4e     Total:10250      MisBP:0   MisRate:0.00%    MPKI:0.00
PC:14c6a     Total:11711      MisBP:0   MisRate:0.00%    MPKI:0.00
PC:14c48     Total:10250      MisBP:0   MisRate:0.00%    MPKI:0.00
PC:14c46     Total:10250      MisBP:0   MisRate:0.00%    MPKI:0.00
PC:14c42     Total:8567      MisBP:0   MisRate:0.00%    MPKI:0.00
PC:14c40     Total:8567      MisBP:0   MisRate:0.00%    MPKI:0.00
PC:14c3c     Total:8844      MisBP:0   MisRate:0.00%    MPKI:0.00
PC:14c3a     Total:8844      MisBP:0   MisRate:0.00%    MPKI:0.00
PC:14c38     Total:8844      MisBP:0   MisRate:0.00%    MPKI:0.00
PC:14c34     Total:9423      MisBP:0   MisRate:0.00%    MPKI:0.00
PC:14c30     Total:9424      MisBP:0   MisRate:0.00%    MPKI:0.00
PC:14c2e     Total:9430      MisBP:0   MisRate:0.00%    MPKI:0.00
PC:14c86     Total:12509      MisBP:0   MisRate:0.00%    MPKI:0.00
PC:14ca2     Total:12893      MisBP:0   MisRate:0.00%    MPKI:0.00
PC:14c9e     Total:12893      MisBP:0   MisRate:0.00%    MPKI:0.00
PC:14c9c     Total:12895      MisBP:0   MisRate:0.00%    MPKI:0.00
PC:14c9a     Total:12902      MisBP:0   MisRate:0.00%    MPKI:0.00
PC:14c96     Total:12804      MisBP:0   MisRate:0.00%    MPKI:0.00
PC:14c94     Total:12804      MisBP:0   MisRate:0.00%    MPKI:0.00
PC:14c90     Total:12805      MisBP:0   MisRate:0.00%    MPKI:0.00
PC:14c8e     Total:12805      MisBP:0   MisRate:0.00%    MPKI:0.00
PC:14c8c     Total:12806      MisBP:0   MisRate:0.00%    MPKI:0.00
PC:14c88     Total:12509      MisBP:0   MisRate:0.00%    MPKI:0.00
PC:12550     Total:1      MisBP:0   MisRate:0.00%    MPKI:0.00
PC:14c82     Total:12509      MisBP:0   MisRate:0.00%    MPKI:0.00
PC:14c80     Total:12509      MisBP:0   MisRate:0.00%    MPKI:0.00
PC:14c7e     Total:12992      MisBP:0   MisRate:0.00%    MPKI:0.00
PC:14c7a     Total:12627      MisBP:0   MisRate:0.00%    MPKI:0.00
PC:14c78     Total:12627      MisBP:0   MisRate:0.00%    MPKI:0.00
PC:14c74     Total:12627      MisBP:0   MisRate:0.00%    MPKI:0.00
PC:14c72     Total:12627      MisBP:0   MisRate:0.00%    MPKI:0.00
PC:14c70     Total:12628      MisBP:0   MisRate:0.00%    MPKI:0.00
PC:14c6c     Total:11710      MisBP:0   MisRate:0.00%    MPKI:0.00
PC:14d68     Total:12881      MisBP:0   MisRate:0.00%    MPKI:0.00
PC:125bc     Total:4      MisBP:0   MisRate:0.00%    MPKI:0.00
PC:14d7a     Total:12911      MisBP:0   MisRate:0.00%    MPKI:0.00
PC:14d76     Total:12916      MisBP:0   MisRate:0.00%    MPKI:0.00
PC:125b6     Total:4      MisBP:0   MisRate:0.00%    MPKI:0.00
PC:14d74     Total:12917      MisBP:0   MisRate:0.00%    MPKI:0.00
PC:14d70     Total:12917      MisBP:0   MisRate:0.00%    MPKI:0.00
PC:14d6e     Total:12918      MisBP:0   MisRate:0.00%    MPKI:0.00
PC:125ae     Total:1      MisBP:0   MisRate:0.00%    MPKI:0.00
PC:14d6c     Total:12919      MisBP:0   MisRate:0.00%    MPKI:0.00
PC:125aa     Total:1      MisBP:0   MisRate:0.00%    MPKI:0.00
PC:14d7c     Total:12908      MisBP:0   MisRate:0.00%    MPKI:0.00
PC:125a8     Total:1      MisBP:0   MisRate:0.00%    MPKI:0.00
PC:14d66     Total:12881      MisBP:0   MisRate:0.00%    MPKI:0.00
PC:125a4     Total:1      MisBP:0   MisRate:0.00%    MPKI:0.00
PC:14d62     Total:12881      MisBP:0   MisRate:0.00%    MPKI:0.00
PC:125a2     Total:1      MisBP:0   MisRate:0.00%    MPKI:0.00
PC:14d60     Total:12882      MisBP:0   MisRate:0.00%    MPKI:0.00
PC:125a0     Total:1      MisBP:0   MisRate:0.00%    MPKI:0.00
PC:14d5e     Total:12883      MisBP:0   MisRate:0.00%    MPKI:0.00
PC:1259c     Total:1      MisBP:0   MisRate:0.00%    MPKI:0.00
PC:14d5a     Total:12594      MisBP:0   MisRate:0.00%    MPKI:0.00
PC:125ce     Total:2      MisBP:0   MisRate:0.00%    MPKI:0.00
PC:14d9e     Total:12547      MisBP:0   MisRate:0.00%    MPKI:0.00
PC:125dc     Total:2      MisBP:0   MisRate:0.00%    MPKI:0.00
PC:14d9a     Total:12547      MisBP:0   MisRate:0.00%    MPKI:0.00
PC:125da     Total:2      MisBP:0   MisRate:0.00%    MPKI:0.00
PC:14d98     Total:12547      MisBP:0   MisRate:0.00%    MPKI:0.00
PC:14d96     Total:12548      MisBP:0   MisRate:0.00%    MPKI:0.00
PC:125d4     Total:2      MisBP:0   MisRate:0.00%    MPKI:0.00
PC:14d92     Total:12500      MisBP:0   MisRate:0.00%    MPKI:0.00
PC:125d2     Total:2      MisBP:0   MisRate:0.00%    MPKI:0.00
PC:14d90     Total:12501      MisBP:0   MisRate:0.00%    MPKI:0.00
PC:1259a     Total:1      MisBP:0   MisRate:0.00%    MPKI:0.00
PC:14d8c     Total:12501      MisBP:0   MisRate:0.00%    MPKI:0.00
PC:125cc     Total:2      MisBP:0   MisRate:0.00%    MPKI:0.00
PC:14d8a     Total:12502      MisBP:0   MisRate:0.00%    MPKI:0.00
PC:14d88     Total:12504      MisBP:0   MisRate:0.00%    MPKI:0.00
PC:14d84     Total:12435      MisBP:0   MisRate:0.00%    MPKI:0.00
PC:125c4     Total:1      MisBP:0   MisRate:0.00%    MPKI:0.00
PC:14d82     Total:12435      MisBP:0   MisRate:0.00%    MPKI:0.00
PC:125c0     Total:1      MisBP:0   MisRate:0.00%    MPKI:0.00
PC:14d7e     Total:12435      MisBP:0   MisRate:0.00%    MPKI:0.00
PC:12562     Total:1      MisBP:0   MisRate:0.00%    MPKI:0.00
PC:14d36     Total:12950      MisBP:0   MisRate:0.00%    MPKI:0.00
PC:14d34     Total:12951      MisBP:0   MisRate:0.00%    MPKI:0.00
PC:14d30     Total:12859      MisBP:0   MisRate:0.00%    MPKI:0.00
PC:14d2e     Total:12860      MisBP:0   MisRate:0.00%    MPKI:0.00
PC:14d2a     Total:12862      MisBP:0   MisRate:0.00%    MPKI:0.00
PC:1256a     Total:1      MisBP:0   MisRate:0.00%    MPKI:0.00
PC:14d28     Total:12862      MisBP:0   MisRate:0.00%    MPKI:0.00
PC:14d26     Total:12863      MisBP:0   MisRate:0.00%    MPKI:0.00
PC:12564     Total:1      MisBP:0   MisRate:0.00%    MPKI:0.00
PC:14d22     Total:12701      MisBP:0   MisRate:0.00%    MPKI:0.00
PC:12578     Total:1      MisBP:0   MisRate:0.00%    MPKI:0.00
PC:14d20     Total:12702      MisBP:0   MisRate:0.00%    MPKI:0.00
PC:14d1c     Total:12702      MisBP:0   MisRate:0.00%    MPKI:0.00
PC:1255c     Total:1      MisBP:0   MisRate:0.00%    MPKI:0.00
PC:14d1a     Total:12702      MisBP:0   MisRate:0.00%    MPKI:0.00
PC:1255a     Total:1      MisBP:0   MisRate:0.00%    MPKI:0.00
PC:14d18     Total:12702      MisBP:0   MisRate:0.00%    MPKI:0.00
PC:12556     Total:1      MisBP:0   MisRate:0.00%    MPKI:0.00
PC:14d14     Total:12650      MisBP:0   MisRate:0.00%    MPKI:0.00
PC:12554     Total:1      MisBP:0   MisRate:0.00%    MPKI:0.00
PC:14d12     Total:12650      MisBP:0   MisRate:0.00%    MPKI:0.00
PC:14d46     Total:12420      MisBP:0   MisRate:0.00%    MPKI:0.00
PC:14d58     Total:12594      MisBP:0   MisRate:0.00%    MPKI:0.00
PC:14d54     Total:12594      MisBP:0   MisRate:0.00%    MPKI:0.00
PC:12594     Total:1      MisBP:0   MisRate:0.00%    MPKI:0.00
PC:14d52     Total:12595      MisBP:0   MisRate:0.00%    MPKI:0.00
PC:12592     Total:1      MisBP:0   MisRate:0.00%    MPKI:0.00
PC:14d50     Total:12595      MisBP:0   MisRate:0.00%    MPKI:0.00
PC:14d4c     Total:12417      MisBP:0   MisRate:0.00%    MPKI:0.00
PC:1258c     Total:1      MisBP:0   MisRate:0.00%    MPKI:0.00
PC:14d4a     Total:12418      MisBP:0   MisRate:0.00%    MPKI:0.00
PC:12588     Total:1      MisBP:0   MisRate:0.00%    MPKI:0.00
PC:15aac     Total:21808      MisBP:0   MisRate:0.00%    MPKI:0.00
PC:12586     Total:1      MisBP:0   MisRate:0.00%    MPKI:0.00
PC:14d44     Total:12420      MisBP:0   MisRate:0.00%    MPKI:0.00
PC:12584     Total:1      MisBP:0   MisRate:0.00%    MPKI:0.00
PC:14d42     Total:12422      MisBP:0   MisRate:0.00%    MPKI:0.00
PC:12580     Total:1      MisBP:0   MisRate:0.00%    MPKI:0.00
PC:14d3e     Total:12431      MisBP:0   MisRate:0.00%    MPKI:0.00
PC:1257e     Total:1      MisBP:0   MisRate:0.00%    MPKI:0.00
PC:14d3c     Total:12949      MisBP:0   MisRate:0.00%    MPKI:0.00
PC:14d38     Total:12949      MisBP:0   MisRate:0.00%    MPKI:0.00
PC:155b8     Total:21549      MisBP:0   MisRate:0.00%    MPKI:0.00
PC:158da     Total:21959      MisBP:0   MisRate:0.00%    MPKI:0.00
PC:296c8     Total:191      MisBP:0   MisRate:0.00%    MPKI:0.00
PC:155c0     Total:21546      MisBP:0   MisRate:0.00%    MPKI:0.00
PC:1311a     Total:3      MisBP:0   MisRate:0.00%    MPKI:0.00
PC:158d8     Total:21965      MisBP:0   MisRate:0.00%    MPKI:0.00
PC:296c4     Total:191      MisBP:0   MisRate:0.00%    MPKI:0.00
PC:155bc     Total:21549      MisBP:0   MisRate:0.00%    MPKI:0.00
PC:13116     Total:47120      MisBP:0   MisRate:0.00%    MPKI:0.00
PC:158d4     Total:21937      MisBP:0   MisRate:0.00%    MPKI:0.00
PC:296c0     Total:191      MisBP:0   MisRate:0.00%    MPKI:0.00
PC:362ea     Total:1      MisBP:0   MisRate:0.00%    MPKI:0.00
PC:13112     Total:47120      MisBP:0   MisRate:0.00%    MPKI:0.00
PC:362e0     Total:2      MisBP:0   MisRate:0.00%    MPKI:0.00
PC:158d0     Total:21939      MisBP:0   MisRate:0.00%    MPKI:0.00
PC:13110     Total:47120      MisBP:0   MisRate:0.00%    MPKI:0.00
PC:158ce     Total:21948      MisBP:0   MisRate:0.00%    MPKI:0.00
PC:1310c     Total:54579      MisBP:0   MisRate:0.00%    MPKI:0.00
PC:158ca     Total:21954      MisBP:0   MisRate:0.00%    MPKI:0.00
PC:296b8     Total:191      MisBP:0   MisRate:0.00%    MPKI:0.00
PC:1310a     Total:54580      MisBP:0   MisRate:0.00%    MPKI:0.00
PC:362d8     Total:6      MisBP:0   MisRate:0.00%    MPKI:0.00
PC:296d4     Total:191      MisBP:0   MisRate:0.00%    MPKI:0.00
PC:13132     Total:5      MisBP:0   MisRate:0.00%    MPKI:0.00
PC:158f0     Total:21966      MisBP:0   MisRate:0.00%    MPKI:0.00
PC:13130     Total:5      MisBP:0   MisRate:0.00%    MPKI:0.00
PC:158ee     Total:21967      MisBP:0   MisRate:0.00%    MPKI:0.00
PC:296dc     Total:191      MisBP:0   MisRate:0.00%    MPKI:0.00
PC:158ec     Total:21976      MisBP:0   MisRate:0.00%    MPKI:0.00
PC:296d8     Total:191      MisBP:0   MisRate:0.00%    MPKI:0.00
PC:155d0     Total:21587      MisBP:0   MisRate:0.00%    MPKI:0.00
PC:1312a     Total:4      MisBP:0   MisRate:0.00%    MPKI:0.00
PC:158e8     Total:21941      MisBP:0   MisRate:0.00%    MPKI:0.00
PC:158c8     Total:21954      MisBP:0   MisRate:0.00%    MPKI:0.00
PC:155cc     Total:21587      MisBP:0   MisRate:0.00%    MPKI:0.00
PC:13126     Total:3      MisBP:0   MisRate:0.00%    MPKI:0.00
PC:158e4     Total:21944      MisBP:0   MisRate:0.00%    MPKI:0.00
PC:158e2     Total:21948      MisBP:0   MisRate:0.00%    MPKI:0.00
PC:13120     Total:3      MisBP:0   MisRate:0.00%    MPKI:0.00
PC:158de     Total:21948      MisBP:0   MisRate:0.00%    MPKI:0.00
PC:296cc     Total:191      MisBP:0   MisRate:0.00%    MPKI:0.00
PC:155c4     Total:21546      MisBP:0   MisRate:0.00%    MPKI:0.00
PC:158dc     Total:21955      MisBP:0   MisRate:0.00%    MPKI:0.00
PC:1311c     Total:3      MisBP:0   MisRate:0.00%    MPKI:0.00
PC:12dd0     Total:15613      MisBP:0   MisRate:0.00%    MPKI:0.00
PC:15598     Total:21502      MisBP:0   MisRate:0.00%    MPKI:0.00
PC:296a0     Total:191      MisBP:0   MisRate:0.00%    MPKI:0.00
PC:12dd8     Total:15611      MisBP:0   MisRate:0.00%    MPKI:0.00
PC:15596     Total:21502      MisBP:0   MisRate:0.00%    MPKI:0.00
PC:12dd6     Total:15611      MisBP:0   MisRate:0.00%    MPKI:0.00
PC:29384     Total:82      MisBP:0   MisRate:0.00%    MPKI:0.00
PC:15594     Total:21502      MisBP:0   MisRate:0.00%    MPKI:0.00
PC:2969c     Total:191      MisBP:0   MisRate:0.00%    MPKI:0.00
PC:12dd4     Total:15613      MisBP:0   MisRate:0.00%    MPKI:0.00
PC:15592     Total:21502      MisBP:0   MisRate:0.00%    MPKI:0.00
PC:29388     Total:82      MisBP:0   MisRate:0.00%    MPKI:0.00
PC:1558e     Total:21502      MisBP:0   MisRate:0.00%    MPKI:0.00
PC:12dcc     Total:16753      MisBP:0   MisRate:0.00%    MPKI:0.00
PC:1558a     Total:21502      MisBP:0   MisRate:0.00%    MPKI:0.00
PC:12dca     Total:16753      MisBP:0   MisRate:0.00%    MPKI:0.00
PC:29378     Total:84      MisBP:0   MisRate:0.00%    MPKI:0.00
PC:15588     Total:21502      MisBP:0   MisRate:0.00%    MPKI:0.00
PC:29690     Total:191      MisBP:0   MisRate:0.00%    MPKI:0.00
PC:12dc6     Total:16754      MisBP:0   MisRate:0.00%    MPKI:0.00
PC:29374     Total:84      MisBP:0   MisRate:0.00%    MPKI:0.00
PC:15584     Total:21502      MisBP:0   MisRate:0.00%    MPKI:0.00
PC:155b2     Total:21533      MisBP:0   MisRate:0.00%    MPKI:0.00
PC:13108     Total:835205      MisBP:0   MisRate:0.00%    MPKI:0.00
PC:362d6     Total:2      MisBP:0   MisRate:0.00%    MPKI:0.00
PC:158c6     Total:21958      MisBP:0   MisRate:0.00%    MPKI:0.00
PC:296b4     Total:191      MisBP:0   MisRate:0.00%    MPKI:0.00
PC:155ac     Total:21533      MisBP:0   MisRate:0.00%    MPKI:0.00
PC:13106     Total:835207      MisBP:0   MisRate:0.00%    MPKI:0.00
PC:158c4     Total:21961      MisBP:0   MisRate:0.00%    MPKI:0.00
PC:12e0c     Total:37033      MisBP:0   MisRate:0.00%    MPKI:0.00
PC:155ca     Total:21587      MisBP:0   MisRate:0.00%    MPKI:0.00
PC:18d08     Total:5847      MisBP:0   MisRate:0.00%    MPKI:0.00
PC:296e0     Total:191      MisBP:0   MisRate:0.00%    MPKI:0.00
PC:155ae     Total:21533      MisBP:0   MisRate:0.00%    MPKI:0.00
PC:155a6     Total:21535      MisBP:0   MisRate:0.00%    MPKI:0.00
PC:12dde     Total:15624      MisBP:0   MisRate:0.00%    MPKI:0.00
PC:2938c     Total:82      MisBP:0   MisRate:0.00%    MPKI:0.00
PC:1559c     Total:21502      MisBP:0   MisRate:0.00%    MPKI:0.00
PC:296a4     Total:191      MisBP:0   MisRate:0.00%    MPKI:0.00
PC:12ddc     Total:15608      MisBP:0   MisRate:0.00%    MPKI:0.00
PC:1559a     Total:21502      MisBP:0   MisRate:0.00%    MPKI:0.00
PC:12dda     Total:15611      MisBP:0   MisRate:0.00%    MPKI:0.00
PC:15928     Total:21970      MisBP:0   MisRate:0.00%    MPKI:0.00
PC:1592e     Total:21956      MisBP:0   MisRate:0.00%    MPKI:0.00
PC:2971c     Total:191      MisBP:0   MisRate:0.00%    MPKI:0.00
PC:15614     Total:21714      MisBP:0   MisRate:0.00%    MPKI:0.00
PC:1316e     Total:2      MisBP:0   MisRate:0.00%    MPKI:0.00
PC:1592c     Total:21957      MisBP:0   MisRate:0.00%    MPKI:0.00
PC:1316c     Total:2      MisBP:0   MisRate:0.00%    MPKI:0.00
PC:1592a     Total:21968      MisBP:0   MisRate:0.00%    MPKI:0.00
PC:29718     Total:191      MisBP:0   MisRate:0.00%    MPKI:0.00
PC:15610     Total:21714      MisBP:0   MisRate:0.00%    MPKI:0.00
PC:1316a     Total:2      MisBP:0   MisRate:0.00%    MPKI:0.00
PC:15930     Total:21951      MisBP:0   MisRate:0.00%    MPKI:0.00
PC:29714     Total:191      MisBP:0   MisRate:0.00%    MPKI:0.00
PC:1560c     Total:21653      MisBP:0   MisRate:0.00%    MPKI:0.00
PC:13166     Total:191      MisBP:0   MisRate:0.00%    MPKI:0.00
PC:15924     Total:21909      MisBP:0   MisRate:0.00%    MPKI:0.00
PC:29710     Total:191      MisBP:0   MisRate:0.00%    MPKI:0.00
PC:15608     Total:21653      MisBP:0   MisRate:0.00%    MPKI:0.00
PC:13162     Total:191      MisBP:0   MisRate:0.00%    MPKI:0.00
PC:15920     Total:21910      MisBP:0   MisRate:0.00%    MPKI:0.00
PC:13160     Total:1      MisBP:0   MisRate:0.00%    MPKI:0.00
PC:1591e     Total:21915      MisBP:0   MisRate:0.00%    MPKI:0.00
PC:1317c     Total:788      MisBP:0   MisRate:0.00%    MPKI:0.00
PC:16744     Total:16372      MisBP:0   MisRate:0.00%    MPKI:0.00
PC:36228     Total:27      MisBP:0   MisRate:0.00%    MPKI:0.00
PC:15d82     Total:21864      MisBP:0   MisRate:0.00%    MPKI:0.00
PC:18c16     Total:61      MisBP:0   MisRate:0.00%    MPKI:0.00
PC:16742     Total:16373      MisBP:0   MisRate:0.00%    MPKI:0.00
PC:154d6     Total:10      MisBP:0   MisRate:0.00%    MPKI:0.00
PC:2972c     Total:191      MisBP:0   MisRate:0.00%    MPKI:0.00
PC:15624     Total:21751      MisBP:0   MisRate:0.00%    MPKI:0.00
PC:1317e     Total:2364      MisBP:0   MisRate:0.00%    MPKI:0.00
PC:1593c     Total:21540      MisBP:0   MisRate:0.00%    MPKI:0.00
PC:1315c     Total:1      MisBP:0   MisRate:0.00%    MPKI:0.00
PC:1593a     Total:21540      MisBP:0   MisRate:0.00%    MPKI:0.00
PC:29728     Total:191      MisBP:0   MisRate:0.00%    MPKI:0.00
PC:15938     Total:2      MisBP:0   MisRate:0.00%    MPKI:0.00
PC:29724     Total:191      MisBP:0   MisRate:0.00%    MPKI:0.00
PC:13176     Total:2      MisBP:0   MisRate:0.00%    MPKI:0.00
PC:13174     Total:2      MisBP:0   MisRate:0.00%    MPKI:0.00
PC:15932     Total:21949      MisBP:0   MisRate:0.00%    MPKI:0.00
PC:29720     Total:191      MisBP:0   MisRate:0.00%    MPKI:0.00
PC:15618     Total:21714      MisBP:0   MisRate:0.00%    MPKI:0.00
PC:13172     Total:2      MisBP:0   MisRate:0.00%    MPKI:0.00
PC:155e4     Total:21613      MisBP:0   MisRate:0.00%    MPKI:0.00
PC:296f4     Total:191      MisBP:0   MisRate:0.00%    MPKI:0.00
PC:155ec     Total:21645      MisBP:0   MisRate:0.00%    MPKI:0.00
PC:13146     Total:259      MisBP:0   MisRate:0.00%    MPKI:0.00
PC:15904     Total:21929      MisBP:0   MisRate:0.00%    MPKI:0.00
PC:15902     Total:21929      MisBP:0   MisRate:0.00%    MPKI:0.00
PC:296f0     Total:191      MisBP:0   MisRate:0.00%    MPKI:0.00
PC:155e8     Total:21613      MisBP:0   MisRate:0.00%    MPKI:0.00
PC:13142     Total:259      MisBP:0   MisRate:0.00%    MPKI:0.00
PC:15900     Total:21929      MisBP:0   MisRate:0.00%    MPKI:0.00
PC:296ec     Total:191      MisBP:0   MisRate:0.00%    MPKI:0.00
PC:15906     Total:21928      MisBP:0   MisRate:0.00%    MPKI:0.00
PC:1313e     Total:2      MisBP:0   MisRate:0.00%    MPKI:0.00
PC:158fc     Total:21936      MisBP:0   MisRate:0.00%    MPKI:0.00
PC:296e8     Total:191      MisBP:0   MisRate:0.00%    MPKI:0.00
PC:155e0     Total:21613      MisBP:0   MisRate:0.00%    MPKI:0.00
PC:1313a     Total:2      MisBP:0   MisRate:0.00%    MPKI:0.00
PC:158f8     Total:21939      MisBP:0   MisRate:0.00%    MPKI:0.00
PC:13138     Total:2      MisBP:0   MisRate:0.00%    MPKI:0.00
PC:158f6     Total:21945      MisBP:0   MisRate:0.00%    MPKI:0.00
PC:13134     Total:5      MisBP:0   MisRate:0.00%    MPKI:0.00
PC:158f2     Total:21954      MisBP:0   MisRate:0.00%    MPKI:0.00
PC:29700     Total:191      MisBP:0   MisRate:0.00%    MPKI:0.00
PC:1591a     Total:21923      MisBP:0   MisRate:0.00%    MPKI:0.00
PC:29708     Total:191      MisBP:0   MisRate:0.00%    MPKI:0.00
PC:15600     Total:21653      MisBP:0   MisRate:0.00%    MPKI:0.00
PC:1315a     Total:1      MisBP:0   MisRate:0.00%    MPKI:0.00
PC:15918     Total:21930      MisBP:0   MisRate:0.00%    MPKI:0.00
PC:13158     Total:1      MisBP:0   MisRate:0.00%    MPKI:0.00
PC:15916     Total:21931      MisBP:0   MisRate:0.00%    MPKI:0.00
PC:29704     Total:191      MisBP:0   MisRate:0.00%    MPKI:0.00
PC:13156     Total:1      MisBP:0   MisRate:0.00%    MPKI:0.00
PC:15914     Total:21956      MisBP:0   MisRate:0.00%    MPKI:0.00
PC:2968c     Total:191      MisBP:0   MisRate:0.00%    MPKI:0.00
PC:13152     Total:1      MisBP:0   MisRate:0.00%    MPKI:0.00
PC:15910     Total:21922      MisBP:0   MisRate:0.00%    MPKI:0.00
PC:296fc     Total:191      MisBP:0   MisRate:0.00%    MPKI:0.00
PC:155f4     Total:21641      MisBP:0   MisRate:0.00%    MPKI:0.00
PC:1314e     Total:1      MisBP:0   MisRate:0.00%    MPKI:0.00
PC:1590c     Total:21923      MisBP:0   MisRate:0.00%    MPKI:0.00
PC:1314c     Total:259      MisBP:0   MisRate:0.00%    MPKI:0.00
PC:1590a     Total:21928      MisBP:0   MisRate:0.00%    MPKI:0.00
PC:13148     Total:259      MisBP:0   MisRate:0.00%    MPKI:0.00
PC:18bb4     Total:12796      MisBP:0   MisRate:0.00%    MPKI:0.00
PC:166e4     Total:52      MisBP:0   MisRate:0.00%    MPKI:0.00
PC:130f6     Total:853868      MisBP:0   MisRate:0.00%    MPKI:0.00
PC:158b4     Total:21967      MisBP:0   MisRate:0.00%    MPKI:0.00
PC:1655e     Total:1      MisBP:0   MisRate:0.00%    MPKI:0.00
PC:3972c     Total:11      MisBP:0   MisRate:0.00%    MPKI:0.00
PC:361c6     Total:322      MisBP:0   MisRate:0.00%    MPKI:0.00
PC:12ff8     Total:6      MisBP:0   MisRate:0.00%    MPKI:0.00
PC:15d20     Total:21867      MisBP:0   MisRate:0.00%    MPKI:0.00
PC:29266     Total:8      MisBP:0   MisRate:0.00%    MPKI:0.00
PC:15476     Total:21596      MisBP:0   MisRate:0.00%    MPKI:0.00
PC:1547a     Total:21596      MisBP:0   MisRate:0.00%    MPKI:0.00
PC:166e0     Total:348      MisBP:0   MisRate:0.00%    MPKI:0.00
PC:130f2     Total:853789      MisBP:0   MisRate:0.00%    MPKI:0.00
PC:158b0     Total:21979      MisBP:0   MisRate:0.00%    MPKI:0.00
PC:15cb0     Total:21827      MisBP:0   MisRate:0.00%    MPKI:0.00
PC:12288     Total:163504      MisBP:0   MisRate:0.00%    MPKI:0.00
PC:14a46     Total:315570      MisBP:0   MisRate:0.00%    MPKI:0.00
PC:361c2     Total:325      MisBP:0   MisRate:0.00%    MPKI:0.00
PC:12ff4     Total:6      MisBP:0   MisRate:0.00%    MPKI:0.00
PC:15d1c     Total:21867      MisBP:0   MisRate:0.00%    MPKI:0.00
PC:29262     Total:1      MisBP:0   MisRate:0.00%    MPKI:0.00
PC:166e6     Total:52      MisBP:0   MisRate:0.00%    MPKI:0.00
PC:158bc     Total:21960      MisBP:0   MisRate:0.00%    MPKI:0.00
PC:158ba     Total:21960      MisBP:0   MisRate:0.00%    MPKI:0.00
PC:15cba     Total:21832      MisBP:0   MisRate:0.00%    MPKI:0.00
PC:12292     Total:161945      MisBP:0   MisRate:0.00%    MPKI:0.00
PC:14a50     Total:315325      MisBP:0   MisRate:0.00%    MPKI:0.00
PC:15410     Total:8      MisBP:0   MisRate:0.00%    MPKI:0.00
PC:29518     Total:2650      MisBP:0   MisRate:0.00%    MPKI:0.00
PC:1667a     Total:7      MisBP:0   MisRate:0.00%    MPKI:0.00
PC:1547c     Total:21627      MisBP:0   MisRate:0.00%    MPKI:0.00
PC:29584     Total:2650      MisBP:0   MisRate:0.00%    MPKI:0.00
PC:15472     Total:21596      MisBP:0   MisRate:0.00%    MPKI:0.00
PC:130f8     Total:853866      MisBP:0   MisRate:0.00%    MPKI:0.00
PC:158b6     Total:21965      MisBP:0   MisRate:0.00%    MPKI:0.00
PC:15cb8     Total:21862      MisBP:0   MisRate:0.00%    MPKI:0.00
PC:1540e     Total:8      MisBP:0   MisRate:0.00%    MPKI:0.00
PC:16562     Total:1      MisBP:0   MisRate:0.00%    MPKI:0.00
PC:39730     Total:11      MisBP:0   MisRate:0.00%    MPKI:0.00
PC:361ca     Total:322      MisBP:0   MisRate:0.00%    MPKI:0.00
PC:15d24     Total:21863      MisBP:0   MisRate:0.00%    MPKI:0.00
PC:151a8     Total:8      MisBP:0   MisRate:0.00%    MPKI:0.00
PC:15162     Total:6      MisBP:0   MisRate:0.00%    MPKI:0.00
PC:158a2     Total:21956      MisBP:0   MisRate:0.00%    MPKI:0.00
PC:158a6     Total:21956      MisBP:0   MisRate:0.00%    MPKI:0.00
PC:15ca6     Total:21793      MisBP:0   MisRate:0.00%    MPKI:0.00
PC:14a3c     Total:335008      MisBP:0   MisRate:0.00%    MPKI:0.00
PC:153fc     Total:560507      MisBP:0   MisRate:0.00%    MPKI:0.00
PC:29504     Total:2650      MisBP:0   MisRate:0.00%    MPKI:0.00
PC:29258     Total:2      MisBP:0   MisRate:0.00%    MPKI:0.00
PC:15150     Total:6      MisBP:0   MisRate:0.00%    MPKI:0.00
PC:15468     Total:257720      MisBP:0   MisRate:0.00%    MPKI:0.00
PC:29570     Total:2650      MisBP:0   MisRate:0.00%    MPKI:0.00
PC:166d2     Total:360      MisBP:0   MisRate:0.00%    MPKI:0.00
PC:166d6     Total:143      MisBP:0   MisRate:0.00%    MPKI:0.00
PC:15ca2     Total:21852      MisBP:0   MisRate:0.00%    MPKI:0.00
PC:1227a     Total:167480      MisBP:0   MisRate:0.00%    MPKI:0.00
PC:14a38     Total:335115      MisBP:0   MisRate:0.00%    MPKI:0.00
PC:153f8     Total:21915      MisBP:0   MisRate:0.00%    MPKI:0.00
PC:29500     Total:2650      MisBP:0   MisRate:0.00%    MPKI:0.00
PC:1654c     Total:21833      MisBP:0   MisRate:0.00%    MPKI:0.00
PC:3971a     Total:11      MisBP:0   MisRate:0.00%    MPKI:0.00
PC:15d0e     Total:21883      MisBP:0   MisRate:0.00%    MPKI:0.00
PC:29254     Total:33      MisBP:0   MisRate:0.00%    MPKI:0.00
PC:15464     Total:257740      MisBP:0   MisRate:0.00%    MPKI:0.00
PC:166d8     Total:143      MisBP:0   MisRate:0.00%    MPKI:0.00
PC:166dc     Total:390      MisBP:0   MisRate:0.00%    MPKI:0.00
PC:130ee     Total:853794      MisBP:0   MisRate:0.00%    MPKI:0.00
PC:158ac     Total:21954      MisBP:0   MisRate:0.00%    MPKI:0.00
PC:15cac     Total:21791      MisBP:0   MisRate:0.00%    MPKI:0.00
PC:1666c     Total:11      MisBP:0   MisRate:0.00%    MPKI:0.00
PC:361be     Total:326      MisBP:0   MisRate:0.00%    MPKI:0.00
PC:12ff0     Total:1      MisBP:0   MisRate:0.00%    MPKI:0.00
PC:15d18     Total:21867      MisBP:0   MisRate:0.00%    MPKI:0.00
PC:2925e     Total:1      MisBP:0   MisRate:0.00%    MPKI:0.00
PC:15156     Total:6      MisBP:0   MisRate:0.00%    MPKI:0.00
PC:130fe     Total:853858      MisBP:0   MisRate:0.00%    MPKI:0.00
PC:29698     Total:191      MisBP:0   MisRate:0.00%    MPKI:0.00
PC:130ea     Total:858805      MisBP:0   MisRate:0.00%    MPKI:0.00
PC:158a8     Total:21956      MisBP:0   MisRate:0.00%    MPKI:0.00
PC:15caa     Total:21793      MisBP:0   MisRate:0.00%    MPKI:0.00
PC:12282     Total:163384      MisBP:0   MisRate:0.00%    MPKI:0.00
PC:14a40     Total:315598      MisBP:0   MisRate:0.00%    MPKI:0.00
PC:15d16     Total:21847      MisBP:0   MisRate:0.00%    MPKI:0.00
PC:2925c     Total:1      MisBP:0   MisRate:0.00%    MPKI:0.00
PC:15154     Total:6      MisBP:0   MisRate:0.00%    MPKI:0.00
PC:15174     Total:10      MisBP:0   MisRate:0.00%    MPKI:0.00
PC:15d50     Total:21853      MisBP:0   MisRate:0.00%    MPKI:0.00
PC:154a6     Total:6      MisBP:0   MisRate:0.00%    MPKI:0.00
PC:16710     Total:2      MisBP:0   MisRate:0.00%    MPKI:0.00
PC:361ea     Total:182      MisBP:0   MisRate:0.00%    MPKI:0.00
PC:1301c     Total:1      MisBP:0   MisRate:0.00%    MPKI:0.00
PC:15d44     Total:21853      MisBP:0   MisRate:0.00%    MPKI:0.00
PC:1549a     Total:6      MisBP:0   MisRate:0.00%    MPKI:0.00
PC:16704     Total:2      MisBP:0   MisRate:0.00%    MPKI:0.00
PC:15d36     Total:21846      MisBP:0   MisRate:0.00%    MPKI:0.00
PC:2927c     Total:7      MisBP:0   MisRate:0.00%    MPKI:0.00
PC:1671a     Total:2      MisBP:0   MisRate:0.00%    MPKI:0.00
PC:1548c     Total:21514      MisBP:0   MisRate:0.00%    MPKI:0.00
PC:29594     Total:2650      MisBP:0   MisRate:0.00%    MPKI:0.00
PC:166f6     Total:6      MisBP:0   MisRate:0.00%    MPKI:0.00
PC:361c8     Total:322      MisBP:0   MisRate:0.00%    MPKI:0.00
PC:12ffa     Total:6      MisBP:0   MisRate:0.00%    MPKI:0.00
PC:15d22     Total:21863      MisBP:0   MisRate:0.00%    MPKI:0.00
PC:29268     Total:8      MisBP:0   MisRate:0.00%    MPKI:0.00
PC:15160     Total:6      MisBP:0   MisRate:0.00%    MPKI:0.00
PC:15478     Total:21596      MisBP:0   MisRate:0.00%    MPKI:0.00
PC:29580     Total:2650      MisBP:0   MisRate:0.00%    MPKI:0.00
PC:12dba     Total:18284      MisBP:0   MisRate:0.00%    MPKI:0.00
PC:12dc2     Total:16745      MisBP:0   MisRate:0.00%    MPKI:0.00
PC:29370     Total:84      MisBP:0   MisRate:0.00%    MPKI:0.00
PC:15580     Total:21502      MisBP:0   MisRate:0.00%    MPKI:0.00
PC:29688     Total:191      MisBP:0   MisRate:0.00%    MPKI:0.00
PC:12dbe     Total:18138      MisBP:0   MisRate:0.00%    MPKI:0.00
PC:2936c     Total:84      MisBP:0   MisRate:0.00%    MPKI:0.00
PC:1557c     Total:21504      MisBP:0   MisRate:0.00%    MPKI:0.00
PC:29684     Total:191      MisBP:0   MisRate:0.00%    MPKI:0.00
PC:12dbc     Total:18138      MisBP:0   MisRate:0.00%    MPKI:0.00
PC:1557a     Total:21504      MisBP:0   MisRate:0.00%    MPKI:0.00
PC:158b2     Total:21971      MisBP:0   MisRate:0.00%    MPKI:0.00
PC:29368     Total:84      MisBP:0   MisRate:0.00%    MPKI:0.00
PC:12db8     Total:18284      MisBP:0   MisRate:0.00%    MPKI:0.00
PC:12db6     Total:18284      MisBP:0   MisRate:0.00%    MPKI:0.00
PC:29364     Total:84      MisBP:0   MisRate:0.00%    MPKI:0.00
PC:15574     Total:21503      MisBP:0   MisRate:0.00%    MPKI:0.00
PC:2967c     Total:192      MisBP:0   MisRate:0.00%    MPKI:0.00
PC:12db4     Total:18284      MisBP:0   MisRate:0.00%    MPKI:0.00
PC:15572     Total:21503      MisBP:0   MisRate:0.00%    MPKI:0.00
PC:15d5a     Total:21809      MisBP:0   MisRate:0.00%    MPKI:0.00
PC:1656a     Total:1      MisBP:0   MisRate:0.00%    MPKI:0.00
PC:29278     Total:7      MisBP:0   MisRate:0.00%    MPKI:0.00
PC:15170     Total:10      MisBP:0   MisRate:0.00%    MPKI:0.00
PC:15488     Total:21514      MisBP:0   MisRate:0.00%    MPKI:0.00
PC:29590     Total:2650      MisBP:0   MisRate:0.00%    MPKI:0.00
PC:166f2     Total:6      MisBP:0   MisRate:0.00%    MPKI:0.00
PC:15cc2     Total:21831      MisBP:0   MisRate:0.00%    MPKI:0.00
PC:1229a     Total:161915      MisBP:0   MisRate:0.00%    MPKI:0.00
PC:14a58     Total:304590      MisBP:0   MisRate:0.00%    MPKI:0.00
PC:15cc0     Total:21785      MisBP:0   MisRate:0.00%    MPKI:0.00
PC:15416     Total:8      MisBP:0   MisRate:0.00%    MPKI:0.00
PC:15d32     Total:21846      MisBP:0   MisRate:0.00%    MPKI:0.00
PC:39738     Total:8      MisBP:0   MisRate:0.00%    MPKI:0.00
PC:361d2     Total:322      MisBP:0   MisRate:0.00%    MPKI:0.00
PC:13004     Total:1      MisBP:0   MisRate:0.00%    MPKI:0.00
PC:15d2c     Total:21846      MisBP:0   MisRate:0.00%    MPKI:0.00
PC:29272     Total:8      MisBP:0   MisRate:0.00%    MPKI:0.00
PC:1516a     Total:6      MisBP:0   MisRate:0.00%    MPKI:0.00
PC:15482     Total:43028      MisBP:0   MisRate:0.00%    MPKI:0.00
PC:18bc0     Total:12406      MisBP:0   MisRate:0.00%    MPKI:0.00
PC:296ac     Total:191      MisBP:0   MisRate:0.00%    MPKI:0.00
PC:155a4     Total:21535      MisBP:0   MisRate:0.00%    MPKI:0.00
PC:39824     Total:1      MisBP:0   MisRate:0.00%    MPKI:0.00
PC:15d02     Total:21852      MisBP:0   MisRate:0.00%    MPKI:0.00
PC:29248     Total:34      MisBP:0   MisRate:0.00%    MPKI:0.00
PC:15140     Total:6      MisBP:0   MisRate:0.00%    MPKI:0.00
PC:15458     Total:21823      MisBP:0   MisRate:0.00%    MPKI:0.00
PC:29560     Total:2650      MisBP:0   MisRate:0.00%    MPKI:0.00
PC:18b96     Total:36      MisBP:0   MisRate:0.00%    MPKI:0.00
PC:15c96     Total:21876      MisBP:0   MisRate:0.00%    MPKI:0.00
PC:153ec     Total:21919      MisBP:0   MisRate:0.00%    MPKI:0.00
PC:294f4     Total:212      MisBP:0   MisRate:0.00%    MPKI:0.00
PC:16656     Total:9      MisBP:0   MisRate:0.00%    MPKI:0.00
PC:154da     Total:10      MisBP:0   MisRate:0.00%    MPKI:0.00
PC:15892     Total:21973      MisBP:0   MisRate:0.00%    MPKI:0.00
PC:15cc8     Total:21833      MisBP:0   MisRate:0.00%    MPKI:0.00
PC:1541e     Total:8      MisBP:0   MisRate:0.00%    MPKI:0.00
PC:16688     Total:1540      MisBP:0   MisRate:0.00%    MPKI:0.00
PC:16572     Total:1      MisBP:0   MisRate:0.00%    MPKI:0.00
PC:15cc6     Total:21833      MisBP:0   MisRate:0.00%    MPKI:0.00
PC:1229e     Total:552648      MisBP:0   MisRate:0.00%    MPKI:0.00
PC:14a5c     Total:708108      MisBP:0   MisRate:0.00%    MPKI:0.00
PC:361d8     Total:254      MisBP:0   MisRate:0.00%    MPKI:0.00
PC:156b4     Total:22139      MisBP:0   MisRate:0.00%    MPKI:0.00
PC:159da     Total:21627      MisBP:0   MisRate:0.00%    MPKI:0.00
PC:297c8     Total:77      MisBP:0   MisRate:0.00%    MPKI:0.00
PC:156c0     Total:22047      MisBP:0   MisRate:0.00%    MPKI:0.00
PC:159d8     Total:21628      MisBP:0   MisRate:0.00%    MPKI:0.00
PC:297c4     Total:110      MisBP:0   MisRate:0.00%    MPKI:0.00
PC:156bc     Total:22106      MisBP:0   MisRate:0.00%    MPKI:0.00
PC:159d4     Total:21628      MisBP:0   MisRate:0.00%    MPKI:0.00
PC:159d2     Total:21629      MisBP:0   MisRate:0.00%    MPKI:0.00
PC:159ce     Total:21629      MisBP:0   MisRate:0.00%    MPKI:0.00
PC:297bc     Total:110      MisBP:0   MisRate:0.00%    MPKI:0.00
PC:159dc     Total:21662      MisBP:0   MisRate:0.00%    MPKI:0.00
PC:159cc     Total:21629      MisBP:0   MisRate:0.00%    MPKI:0.00
PC:159ca     Total:21629      MisBP:0   MisRate:0.00%    MPKI:0.00
PC:297b8     Total:110      MisBP:0   MisRate:0.00%    MPKI:0.00
PC:159c8     Total:21629      MisBP:0   MisRate:0.00%    MPKI:0.00
PC:159c6     Total:21596      MisBP:0   MisRate:0.00%    MPKI:0.00
PC:297b4     Total:56      MisBP:0   MisRate:0.00%    MPKI:0.00
PC:159c4     Total:21597      MisBP:0   MisRate:0.00%    MPKI:0.00
PC:297b0     Total:112      MisBP:0   MisRate:0.00%    MPKI:0.00
PC:156a8     Total:22110      MisBP:0   MisRate:0.00%    MPKI:0.00
PC:159c0     Total:21597      MisBP:0   MisRate:0.00%    MPKI:0.00
PC:297e0     Total:231      MisBP:0   MisRate:0.00%    MPKI:0.00
PC:156e4     Total:22116      MisBP:0   MisRate:0.00%    MPKI:0.00
PC:159fc     Total:21735      MisBP:0   MisRate:0.00%    MPKI:0.00
PC:159fa     Total:21714      MisBP:0   MisRate:0.00%    MPKI:0.00
PC:297e8     Total:77      MisBP:0   MisRate:0.00%    MPKI:0.00
PC:156e0     Total:22116      MisBP:0   MisRate:0.00%    MPKI:0.00
PC:159f8     Total:21714      MisBP:0   MisRate:0.00%    MPKI:0.00
PC:297e4     Total:77      MisBP:0   MisRate:0.00%    MPKI:0.00
PC:156dc     Total:22116      MisBP:0   MisRate:0.00%    MPKI:0.00
PC:159f4     Total:21684      MisBP:0   MisRate:0.00%    MPKI:0.00
PC:159f2     Total:21684      MisBP:0   MisRate:0.00%    MPKI:0.00
PC:159be     Total:21606      MisBP:0   MisRate:0.00%    MPKI:0.00
PC:156d8     Total:22116      MisBP:0   MisRate:0.00%    MPKI:0.00
PC:159f0     Total:21684      MisBP:0   MisRate:0.00%    MPKI:0.00
PC:297dc     Total:231      MisBP:0   MisRate:0.00%    MPKI:0.00
PC:159ec     Total:21658      MisBP:0   MisRate:0.00%    MPKI:0.00
PC:159ea     Total:21662      MisBP:0   MisRate:0.00%    MPKI:0.00
PC:159e6     Total:21662      MisBP:0   MisRate:0.00%    MPKI:0.00
PC:159e2     Total:21662      MisBP:0   MisRate:0.00%    MPKI:0.00
PC:159de     Total:21662      MisBP:0   MisRate:0.00%    MPKI:0.00
PC:297cc     Total:77      MisBP:0   MisRate:0.00%    MPKI:0.00
PC:156c4     Total:22104      MisBP:0   MisRate:0.00%    MPKI:0.00
PC:29780     Total:189      MisBP:0   MisRate:0.00%    MPKI:0.00
PC:29790     Total:56      MisBP:0   MisRate:0.00%    MPKI:0.00
PC:159a0     Total:21511      MisBP:0   MisRate:0.00%    MPKI:0.00
PC:1599e     Total:21511      MisBP:0   MisRate:0.00%    MPKI:0.00
PC:1599a     Total:21511      MisBP:0   MisRate:0.00%    MPKI:0.00
PC:29788     Total:189      MisBP:0   MisRate:0.00%    MPKI:0.00
PC:15680     Total:22011      MisBP:0   MisRate:0.00%    MPKI:0.00
PC:15998     Total:21511      MisBP:0   MisRate:0.00%    MPKI:0.00
PC:29784     Total:189      MisBP:0   MisRate:0.00%    MPKI:0.00
PC:1567c     Total:22030      MisBP:0   MisRate:0.00%    MPKI:0.00
PC:15994     Total:21514      MisBP:0   MisRate:0.00%    MPKI:0.00
PC:159a4     Total:21511      MisBP:0   MisRate:0.00%    MPKI:0.00
PC:15678     Total:21946      MisBP:0   MisRate:0.00%    MPKI:0.00
PC:15990     Total:21514      MisBP:0   MisRate:0.00%    MPKI:0.00
PC:1598e     Total:21514      MisBP:0   MisRate:0.00%    MPKI:0.00
PC:1598a     Total:21514      MisBP:0   MisRate:0.00%    MPKI:0.00
PC:29778     Total:189      MisBP:0   MisRate:0.00%    MPKI:0.00
PC:15670     Total:21946      MisBP:0   MisRate:0.00%    MPKI:0.00
PC:15988     Total:21514      MisBP:0   MisRate:0.00%    MPKI:0.00
PC:29774     Total:189      MisBP:0   MisRate:0.00%    MPKI:0.00
PC:1566c     Total:21947      MisBP:0   MisRate:0.00%    MPKI:0.00
PC:15984     Total:21514      MisBP:0   MisRate:0.00%    MPKI:0.00
PC:159b0     Total:21575      MisBP:0   MisRate:0.00%    MPKI:0.00
PC:159ba     Total:21606      MisBP:0   MisRate:0.00%    MPKI:0.00
PC:297a8     Total:56      MisBP:0   MisRate:0.00%    MPKI:0.00
PC:156a0     Total:22113      MisBP:0   MisRate:0.00%    MPKI:0.00
PC:159b8     Total:21606      MisBP:0   MisRate:0.00%    MPKI:0.00
PC:159b6     Total:21606      MisBP:0   MisRate:0.00%    MPKI:0.00
PC:297a4     Total:56      MisBP:0   MisRate:0.00%    MPKI:0.00
PC:1569c     Total:22033      MisBP:0   MisRate:0.00%    MPKI:0.00
PC:159b4     Total:21576      MisBP:0   MisRate:0.00%    MPKI:0.00
PC:159b2     Total:21576      MisBP:0   MisRate:0.00%    MPKI:0.00
PC:15698     Total:22033      MisBP:0   MisRate:0.00%    MPKI:0.00
PC:297ec     Total:2236      MisBP:0   MisRate:0.00%    MPKI:0.00
PC:2979c     Total:56      MisBP:0   MisRate:0.00%    MPKI:0.00
PC:15694     Total:22033      MisBP:0   MisRate:0.00%    MPKI:0.00
PC:159ac     Total:21575      MisBP:0   MisRate:0.00%    MPKI:0.00
PC:159aa     Total:21577      MisBP:0   MisRate:0.00%    MPKI:0.00
PC:29798     Total:56      MisBP:0   MisRate:0.00%    MPKI:0.00
PC:15690     Total:22043      MisBP:0   MisRate:0.00%    MPKI:0.00
PC:159a8     Total:21577      MisBP:0   MisRate:0.00%    MPKI:0.00
PC:159a6     Total:21570      MisBP:0   MisRate:0.00%    MPKI:0.00
PC:29794     Total:56      MisBP:0   MisRate:0.00%    MPKI:0.00
PC:15a64     Total:21863      MisBP:0   MisRate:0.00%    MPKI:0.00
PC:15a7c     Total:21920      MisBP:0   MisRate:0.00%    MPKI:0.00
PC:15a78     Total:21883      MisBP:0   MisRate:0.00%    MPKI:0.00
PC:15a76     Total:21883      MisBP:0   MisRate:0.00%    MPKI:0.00
PC:15a74     Total:21883      MisBP:0   MisRate:0.00%    MPKI:0.00
PC:15a72     Total:21883      MisBP:0   MisRate:0.00%    MPKI:0.00
PC:15a70     Total:21883      MisBP:0   MisRate:0.00%    MPKI:0.00
PC:15a6c     Total:21883      MisBP:0   MisRate:0.00%    MPKI:0.00
PC:15a6a     Total:21884      MisBP:0   MisRate:0.00%    MPKI:0.00
PC:15a68     Total:21884      MisBP:0   MisRate:0.00%    MPKI:0.00
PC:15a66     Total:21863      MisBP:0   MisRate:0.00%    MPKI:0.00
PC:15a7e     Total:21920      MisBP:0   MisRate:0.00%    MPKI:0.00
PC:15a62     Total:21834      MisBP:0   MisRate:0.00%    MPKI:0.00
PC:15a60     Total:21834      MisBP:0   MisRate:0.00%    MPKI:0.00
PC:15a5e     Total:21799      MisBP:0   MisRate:0.00%    MPKI:0.00
PC:15a5c     Total:21799      MisBP:0   MisRate:0.00%    MPKI:0.00
PC:15a5a     Total:21799      MisBP:0   MisRate:0.00%    MPKI:0.00
PC:15a58     Total:21799      MisBP:0   MisRate:0.00%    MPKI:0.00
PC:15a56     Total:21805      MisBP:0   MisRate:0.00%    MPKI:0.00
PC:15a54     Total:21805      MisBP:0   MisRate:0.00%    MPKI:0.00
PC:15a50     Total:21805      MisBP:0   MisRate:0.00%    MPKI:0.00
PC:15a4c     Total:21805      MisBP:0   MisRate:0.00%    MPKI:0.00
PC:15a94     Total:21807      MisBP:0   MisRate:0.00%    MPKI:0.00
PC:15aaa     Total:21808      MisBP:0   MisRate:0.00%    MPKI:0.00
PC:15aa8     Total:21808      MisBP:0   MisRate:0.00%    MPKI:0.00
PC:15aa6     Total:21788      MisBP:0   MisRate:0.00%    MPKI:0.00
PC:15aa4     Total:21788      MisBP:0   MisRate:0.00%    MPKI:0.00
PC:15aa2     Total:21807      MisBP:0   MisRate:0.00%    MPKI:0.00
PC:15aa0     Total:21807      MisBP:0   MisRate:0.00%    MPKI:0.00
PC:15a9e     Total:21807      MisBP:0   MisRate:0.00%    MPKI:0.00
PC:15a9c     Total:21807      MisBP:0   MisRate:0.00%    MPKI:0.00
PC:15a98     Total:21807      MisBP:0   MisRate:0.00%    MPKI:0.00
PC:15a96     Total:21807      MisBP:0   MisRate:0.00%    MPKI:0.00
PC:15a48     Total:21805      MisBP:0   MisRate:0.00%    MPKI:0.00
PC:15a92     Total:21807      MisBP:0   MisRate:0.00%    MPKI:0.00
PC:15a90     Total:21856      MisBP:0   MisRate:0.00%    MPKI:0.00
PC:15a8e     Total:21856      MisBP:0   MisRate:0.00%    MPKI:0.00
PC:15a8c     Total:21859      MisBP:0   MisRate:0.00%    MPKI:0.00
PC:15a8a     Total:21859      MisBP:0   MisRate:0.00%    MPKI:0.00
PC:15a88     Total:21859      MisBP:0   MisRate:0.00%    MPKI:0.00
PC:15a86     Total:21859      MisBP:0   MisRate:0.00%    MPKI:0.00
PC:15a84     Total:21859      MisBP:0   MisRate:0.00%    MPKI:0.00
PC:15a80     Total:21859      MisBP:0   MisRate:0.00%    MPKI:0.00
PC:15a0a     Total:21758      MisBP:0   MisRate:0.00%    MPKI:0.00
PC:15700     Total:22105      MisBP:0   MisRate:0.00%    MPKI:0.00
PC:15a18     Total:21820      MisBP:0   MisRate:0.00%    MPKI:0.00
PC:15a16     Total:21820      MisBP:0   MisRate:0.00%    MPKI:0.00
PC:156fc     Total:22184      MisBP:0   MisRate:0.00%    MPKI:0.00
PC:15a14     Total:21816      MisBP:0   MisRate:0.00%    MPKI:0.00
PC:29800     Total:2193      MisBP:0   MisRate:0.00%    MPKI:0.00
PC:15a10     Total:21816      MisBP:0   MisRate:0.00%    MPKI:0.00
PC:15a0e     Total:21816      MisBP:0   MisRate:0.00%    MPKI:0.00
PC:297fc     Total:6654      MisBP:0   MisRate:0.00%    MPKI:0.00
PC:15a0c     Total:21816      MisBP:0   MisRate:0.00%    MPKI:0.00
PC:29808     Total:231      MisBP:0   MisRate:0.00%    MPKI:0.00
PC:297f8     Total:6666      MisBP:0   MisRate:0.00%    MPKI:0.00
PC:156f0     Total:22159      MisBP:0   MisRate:0.00%    MPKI:0.00
PC:15a08     Total:21758      MisBP:0   MisRate:0.00%    MPKI:0.00
PC:297f4     Total:6680      MisBP:0   MisRate:0.00%    MPKI:0.00
PC:156ec     Total:22159      MisBP:0   MisRate:0.00%    MPKI:0.00
PC:15a04     Total:21732      MisBP:0   MisRate:0.00%    MPKI:0.00
PC:297f0     Total:6708      MisBP:0   MisRate:0.00%    MPKI:0.00
PC:156e8     Total:22186      MisBP:0   MisRate:0.00%    MPKI:0.00
[...]
PC:12e9e     Total:131132      MisBP:0   MisRate:0.00%    MPKI:0.00
PC:2944c     Total:799      MisBP:0   MisRate:0.00%    MPKI:0.00
PC:18d98     Total:30      MisBP:0   MisRate:0.00%    MPKI:0.00
PC:1565a     Total:21912      MisBP:0   MisRate:0.00%    MPKI:0.00
PC:12ed8     Total:271      MisBP:0   MisRate:0.00%    MPKI:0.00
PC:156a6     Total:22113      MisBP:0   MisRate:0.00%    MPKI:0.00
PC:1690e     Total:3      MisBP:0   MisRate:0.00%    MPKI:0.00
PC:14150     Total:231      MisBP:0   MisRate:0.00%    MPKI:0.00
PC:12ee6     Total:6      MisBP:0   MisRate:0.00%    MPKI:0.00
PC:29494     Total:11      MisBP:0   MisRate:0.00%    MPKI:0.00
PC:1690c     Total:3      MisBP:0   MisRate:0.00%    MPKI:0.00
PC:156a2     Total:22113      MisBP:0   MisRate:0.00%    MPKI:0.00
PC:12ee2     Total:6      MisBP:0   MisRate:0.00%    MPKI:0.00
PC:29490     Total:11      MisBP:0   MisRate:0.00%    MPKI:0.00
PC:16906     Total:3      MisBP:0   MisRate:0.00%    MPKI:0.00
PC:2948c     Total:11      MisBP:0   MisRate:0.00%    MPKI:0.00
PC:29488     Total:11      MisBP:0   MisRate:0.00%    MPKI:0.00
PC:18dd4     Total:10855      MisBP:0   MisRate:0.00%    MPKI:0.00
PC:15696     Total:22033      MisBP:0   MisRate:0.00%    MPKI:0.00
PC:12eba     Total:6      MisBP:0   MisRate:0.00%    MPKI:0.00
PC:29484     Total:11      MisBP:0   MisRate:0.00%    MPKI:0.00
PC:15692     Total:22041      MisBP:0   MisRate:0.00%    MPKI:0.00
PC:12ed4     Total:543      MisBP:0   MisRate:0.00%    MPKI:0.00
PC:29480     Total:11      MisBP:0   MisRate:0.00%    MPKI:0.00
PC:1568e     Total:22043      MisBP:0   MisRate:0.00%    MPKI:0.00
PC:12ed0     Total:5      MisBP:0   MisRate:0.00%    MPKI:0.00
PC:1568a     Total:22011      MisBP:0   MisRate:0.00%    MPKI:0.00
PC:12ecc     Total:5      MisBP:0   MisRate:0.00%    MPKI:0.00
PC:15686     Total:22011      MisBP:0   MisRate:0.00%    MPKI:0.00
PC:18dc2     Total:4806      MisBP:0   MisRate:0.00%    MPKI:0.00
PC:12ec6     Total:5      MisBP:0   MisRate:0.00%    MPKI:0.00
PC:29474     Total:16      MisBP:0   MisRate:0.00%    MPKI:0.00
PC:15682     Total:22011      MisBP:0   MisRate:0.00%    MPKI:0.00
PC:12e9c     Total:131132      MisBP:0   MisRate:0.00%    MPKI:0.00
PC:2943c     Total:863      MisBP:0   MisRate:0.00%    MPKI:0.00
PC:12e96     Total:131097      MisBP:0   MisRate:0.00%    MPKI:0.00
PC:29438     Total:863      MisBP:0   MisRate:0.00%    MPKI:0.00
PC:12e92     Total:131097      MisBP:0   MisRate:0.00%    MPKI:0.00
PC:15646     Total:21855      MisBP:0   MisRate:0.00%    MPKI:0.00
PC:12e8a     Total:131098      MisBP:0   MisRate:0.00%    MPKI:0.00
PC:29448     Total:799      MisBP:0   MisRate:0.00%    MPKI:0.00
PC:12e8c     Total:131098      MisBP:0   MisRate:0.00%    MPKI:0.00
PC:18d8a     Total:2221      MisBP:0   MisRate:0.00%    MPKI:0.00
PC:12e8e     Total:131098      MisBP:0   MisRate:0.00%    MPKI:0.00
PC:1564e     Total:21855      MisBP:0   MisRate:0.00%    MPKI:0.00
PC:1564a     Total:21855      MisBP:0   MisRate:0.00%    MPKI:0.00
PC:29440     Total:800      MisBP:0   MisRate:0.00%    MPKI:0.00
PC:18d86     Total:2223      MisBP:0   MisRate:0.00%    MPKI:0.00
PC:29444     Total:800      MisBP:0   MisRate:0.00%    MPKI:0.00
PC:12e90     Total:131097      MisBP:0   MisRate:0.00%    MPKI:0.00
PC:12e6c     Total:131134      MisBP:1   MisRate:0.00%    MPKI:0.00
PC:11c66     Total:4      MisBP:1   MisRate:25.00%    MPKI:0.00
PC:125f0     Total:407109      MisBP:1   MisRate:0.00%    MPKI:0.00
PC:121be     Total:955      MisBP:1   MisRate:0.10%    MPKI:0.00
PC:10f9c     Total:202      MisBP:1   MisRate:0.50%    MPKI:0.00
PC:141a8     Total:236      MisBP:1   MisRate:0.42%    MPKI:0.00
PC:119be     Total:12131401      MisBP:1   MisRate:0.00%    MPKI:0.00
PC:13000     Total:5      MisBP:1   MisRate:20.00%    MPKI:0.00
PC:12fd8     Total:1      MisBP:1   MisRate:100.00%    MPKI:0.00
PC:125b2     Total:1      MisBP:1   MisRate:100.00%    MPKI:0.00
PC:11b88     Total:1      MisBP:1   MisRate:100.00%    MPKI:0.00
PC:3624e     Total:27      MisBP:1   MisRate:3.70%    MPKI:0.00
PC:11d68     Total:10      MisBP:1   MisRate:10.00%    MPKI:0.00
PC:14af2     Total:1      MisBP:1   MisRate:100.00%    MPKI:0.00
PC:128f6     Total:247      MisBP:1   MisRate:0.40%    MPKI:0.00
PC:140be     Total:189      MisBP:1   MisRate:0.53%    MPKI:0.00
PC:29348     Total:238      MisBP:1   MisRate:0.42%    MPKI:0.00
PC:14f2e     Total:3      MisBP:1   MisRate:33.33%    MPKI:0.00
PC:1272a     Total:194      MisBP:1   MisRate:0.52%    MPKI:0.00
PC:15408     Total:21545      MisBP:1   MisRate:0.00%    MPKI:0.00
PC:12902     Total:197      MisBP:1   MisRate:0.51%    MPKI:0.00
PC:14bfe     Total:10005      MisBP:1   MisRate:0.01%    MPKI:0.00
PC:1417e     Total:35      MisBP:1   MisRate:2.86%    MPKI:0.00
PC:11c96     Total:5      MisBP:1   MisRate:20.00%    MPKI:0.00
PC:130ae     Total:1022937      MisBP:1   MisRate:0.00%    MPKI:0.00
PC:12fde     Total:1      MisBP:1   MisRate:100.00%    MPKI:0.00
PC:165a8     Total:1      MisBP:1   MisRate:100.00%    MPKI:0.00
PC:39800     Total:2      MisBP:1   MisRate:50.00%    MPKI:0.00
PC:167d0     Total:280      MisBP:1   MisRate:0.36%    MPKI:0.00
PC:15934     Total:21949      MisBP:2   MisRate:0.01%    MPKI:0.00
PC:12f14     Total:8      MisBP:2   MisRate:25.00%    MPKI:0.00
PC:1666e     Total:11      MisBP:2   MisRate:18.18%    MPKI:0.00
PC:140d2     Total:1640      MisBP:2   MisRate:0.12%    MPKI:0.00
PC:15498     Total:21506      MisBP:2   MisRate:0.01%    MPKI:0.00
PC:18d92     Total:2221      MisBP:2   MisRate:0.09%    MPKI:0.00
PC:12eae     Total:27      MisBP:2   MisRate:7.41%    MPKI:0.00
PC:29404     Total:214      MisBP:2   MisRate:0.93%    MPKI:0.00
PC:16760     Total:10894      MisBP:2   MisRate:0.02%    MPKI:0.00
PC:14bc4     Total:390      MisBP:2   MisRate:0.51%    MPKI:0.00
PC:11bb4     Total:65551      MisBP:2   MisRate:0.00%    MPKI:0.00
PC:14f58     Total:33      MisBP:2   MisRate:6.06%    MPKI:0.00
PC:16854     Total:11395      MisBP:2   MisRate:0.02%    MPKI:0.00
PC:13074     Total:2042      MisBP:2   MisRate:0.10%    MPKI:0.00
PC:16768     Total:6      MisBP:2   MisRate:33.33%    MPKI:0.00
PC:13354     Total:1209      MisBP:2   MisRate:0.17%    MPKI:0.00
PC:14f1e     Total:19      MisBP:2   MisRate:10.53%    MPKI:0.00
PC:15504     Total:7      MisBP:2   MisRate:28.57%    MPKI:0.00
PC:16696     Total:27      MisBP:2   MisRate:7.41%    MPKI:0.00
PC:16896     Total:67      MisBP:2   MisRate:2.99%    MPKI:0.00
PC:11c90     Total:40      MisBP:3   MisRate:7.50%    MPKI:0.00
PC:11d8a     Total:264      MisBP:3   MisRate:1.14%    MPKI:0.00
PC:166b6     Total:32      MisBP:3   MisRate:9.38%    MPKI:0.00
PC:18de2     Total:47      MisBP:3   MisRate:6.38%    MPKI:0.00
PC:11cc6     Total:65568      MisBP:3   MisRate:0.00%    MPKI:0.00
PC:165be     Total:15      MisBP:3   MisRate:20.00%    MPKI:0.00
PC:12e5c     Total:222      MisBP:3   MisRate:1.35%    MPKI:0.00
PC:13382     Total:215      MisBP:3   MisRate:1.40%    MPKI:0.00
PC:111de     Total:43      MisBP:3   MisRate:6.98%    MPKI:0.00
PC:361f6     Total:179      MisBP:4   MisRate:2.23%    MPKI:0.00
PC:11c50     Total:225154      MisBP:4   MisRate:0.00%    MPKI:0.00
PC:10158     Total:825      MisBP:4   MisRate:0.48%    MPKI:0.00
PC:29354     Total:74      MisBP:4   MisRate:5.41%    MPKI:0.00
PC:153cc     Total:25      MisBP:4   MisRate:16.00%    MPKI:0.00
PC:14bde     Total:172      MisBP:4   MisRate:2.33%    MPKI:0.00
PC:153d2     Total:8      MisBP:4   MisRate:50.00%    MPKI:0.00
PC:293d0     Total:213      MisBP:4   MisRate:1.88%    MPKI:0.00
PC:14162     Total:299      MisBP:4   MisRate:1.34%    MPKI:0.00
PC:166f0     Total:6      MisBP:4   MisRate:66.67%    MPKI:0.00
PC:1208c     Total:471      MisBP:4   MisRate:0.85%    MPKI:0.00
PC:15576     Total:21503      MisBP:4   MisRate:0.02%    MPKI:0.00
PC:14bf6     Total:170      MisBP:4   MisRate:2.35%    MPKI:0.00
PC:12eda     Total:271      MisBP:4   MisRate:1.48%    MPKI:0.00
PC:12e56     Total:194      MisBP:4   MisRate:2.06%    MPKI:0.00
PC:166e8     Total:52      MisBP:5   MisRate:9.62%    MPKI:0.00
PC:16802     Total:6      MisBP:5   MisRate:83.33%    MPKI:0.00
PC:10ecc     Total:211      MisBP:5   MisRate:2.37%    MPKI:0.00
PC:11d9a     Total:22      MisBP:5   MisRate:22.73%    MPKI:0.00
PC:15120     Total:13      MisBP:5   MisRate:38.46%    MPKI:0.00
PC:1104e     Total:189      MisBP:5   MisRate:2.65%    MPKI:0.00
PC:1697a     Total:339      MisBP:5   MisRate:1.47%    MPKI:0.00
PC:18e28     Total:615      MisBP:5   MisRate:0.81%    MPKI:0.00
PC:166a8     Total:34      MisBP:5   MisRate:14.71%    MPKI:0.00
PC:16606     Total:15111      MisBP:5   MisRate:0.03%    MPKI:0.00
PC:29470     Total:203      MisBP:6   MisRate:2.96%    MPKI:0.00
PC:1593e     Total:21533      MisBP:6   MisRate:0.03%    MPKI:0.00
PC:167fa     Total:12      MisBP:6   MisRate:50.00%    MPKI:0.00
PC:13346     Total:222      MisBP:6   MisRate:2.70%    MPKI:0.00
PC:3970e     Total:10      MisBP:6   MisRate:60.00%    MPKI:0.00
PC:11b12     Total:174125      MisBP:6   MisRate:0.00%    MPKI:0.00
PC:153a8     Total:79      MisBP:6   MisRate:7.59%    MPKI:0.00
PC:12efc     Total:196      MisBP:7   MisRate:3.57%    MPKI:0.00
PC:29654     Total:2646      MisBP:7   MisRate:0.26%    MPKI:0.00
PC:125f6     Total:407110      MisBP:7   MisRate:0.00%    MPKI:0.00
PC:29818     Total:75      MisBP:7   MisRate:9.33%    MPKI:0.00
PC:16644     Total:681      MisBP:7   MisRate:1.03%    MPKI:0.00
PC:18c2e     Total:6087      MisBP:7   MisRate:0.11%    MPKI:0.00
PC:154fa     Total:37      MisBP:7   MisRate:18.92%    MPKI:0.00
PC:154cc     Total:148      MisBP:8   MisRate:5.41%    MPKI:0.00
PC:121f0     Total:847      MisBP:8   MisRate:0.94%    MPKI:0.00
PC:167f2     Total:1412      MisBP:8   MisRate:0.57%    MPKI:0.00
PC:14f16     Total:12454      MisBP:9   MisRate:0.07%    MPKI:0.00
PC:1511c     Total:784136      MisBP:9   MisRate:0.00%    MPKI:0.00
PC:1308a     Total:55026      MisBP:9   MisRate:0.02%    MPKI:0.00
PC:18e8c     Total:96      MisBP:9   MisRate:9.38%    MPKI:0.00
PC:166c4     Total:51      MisBP:10   MisRate:19.61%    MPKI:0.00
PC:11d58     Total:225144      MisBP:10   MisRate:0.00%    MPKI:0.00
PC:18e16     Total:4089      MisBP:11   MisRate:0.27%    MPKI:0.00
PC:15444     Total:260      MisBP:14   MisRate:5.38%    MPKI:0.00
PC:1414a     Total:266      MisBP:14   MisRate:5.26%    MPKI:0.00
PC:18e84     Total:9875      MisBP:15   MisRate:0.15%    MPKI:0.00
PC:166e2     Total:348      MisBP:19   MisRate:5.46%    MPKI:0.00
PC:120e6     Total:500      MisBP:20   MisRate:4.00%    MPKI:0.00
PC:153c2     Total:2046      MisBP:21   MisRate:1.03%    MPKI:0.00
PC:16692     Total:785      MisBP:25   MisRate:3.18%    MPKI:0.00
PC:12140     Total:486      MisBP:26   MisRate:5.35%    MPKI:0.00
PC:12ea0     Total:131132      MisBP:27   MisRate:0.02%    MPKI:0.00
PC:297a0     Total:56      MisBP:28   MisRate:50.00%    MPKI:0.00
PC:293c4     Total:238      MisBP:30   MisRate:12.61%    MPKI:0.00
PC:14168     Total:296      MisBP:31   MisRate:10.47%    MPKI:0.00
PC:11e2a     Total:82      MisBP:38   MisRate:46.34%    MPKI:0.00
PC:18c4e     Total:280      MisBP:39   MisRate:13.93%    MPKI:0.00
PC:18b64     Total:5717      MisBP:41   MisRate:0.72%    MPKI:0.00
PC:166d4     Total:360      MisBP:43   MisRate:11.94%    MPKI:0.00
PC:1227c     Total:167469      MisBP:44   MisRate:0.03%    MPKI:0.00
PC:18ca4     Total:5189      MisBP:44   MisRate:0.85%    MPKI:0.00
PC:18de0     Total:5403      MisBP:47   MisRate:0.87%    MPKI:0.00
PC:12180     Total:1087      MisBP:48   MisRate:4.42%    MPKI:0.00
PC:130c8     Total:151568      MisBP:49   MisRate:0.03%    MPKI:0.00
PC:18cc4     Total:193      MisBP:51   MisRate:26.42%    MPKI:0.00
PC:11dfc     Total:2766      MisBP:52   MisRate:1.88%    MPKI:0.00
PC:14bb6     Total:391      MisBP:55   MisRate:14.07%    MPKI:0.00
PC:167cc     Total:295      MisBP:57   MisRate:19.32%    MPKI:0.00
PC:121dc     Total:939      MisBP:58   MisRate:6.18%    MPKI:0.00
PC:18bf8     Total:6011      MisBP:65   MisRate:1.08%    MPKI:0.00
PC:11e26     Total:3122      MisBP:66   MisRate:2.11%    MPKI:0.00
PC:1668c     Total:770      MisBP:67   MisRate:8.70%    MPKI:0.00
PC:29804     Total:2193      MisBP:68   MisRate:3.10%    MPKI:0.00
PC:12182     Total:136      MisBP:81   MisRate:59.56%    MPKI:0.00
PC:12224     Total:374      MisBP:82   MisRate:21.93%    MPKI:0.00
PC:167e4     Total:1415      MisBP:138   MisRate:9.75%    MPKI:0.00
PC:18cd8     Total:24891      MisBP:158   MisRate:0.63%    MPKI:0.00
PC:1221c     Total:803916      MisBP:159   MisRate:0.02%    MPKI:0.00
PC:18c62     Total:24133      MisBP:172   MisRate:0.71%    MPKI:0.00
PC:167b8     Total:1342      MisBP:172   MisRate:12.82%    MPKI:0.00
PC:15440     Total:1175      MisBP:174   MisRate:14.81%    MPKI:0.00
PC:29454     Total:799      MisBP:193   MisRate:24.16%    MPKI:0.00
PC:11f7a     Total:159691      MisBP:244   MisRate:0.15%    MPKI:0.00
PC:130b6     Total:1020955      MisBP:254   MisRate:0.02%    MPKI:0.00
PC:1211e     Total:756968      MisBP:277   MisRate:0.04%    MPKI:0.00
PC:18d84     Total:2517      MisBP:278   MisRate:11.04%    MPKI:0.00
PC:12da0     Total:22660      MisBP:282   MisRate:1.24%    MPKI:0.00
PC:12d9c     Total:56146      MisBP:295   MisRate:0.53%    MPKI:0.00
PC:1207e     Total:95881      MisBP:296   MisRate:0.31%    MPKI:0.00
PC:11e60     Total:94345      MisBP:334   MisRate:0.35%    MPKI:0.00
PC:18cfe     Total:23341      MisBP:389   MisRate:1.67%    MPKI:0.00
PC:120ce     Total:66859      MisBP:433   MisRate:0.65%    MPKI:0.00
PC:18bce     Total:6157      MisBP:456   MisRate:7.41%    MPKI:0.00
PC:121ae     Total:70831      MisBP:505   MisRate:0.71%    MPKI:0.00
PC:12178     Total:792929      MisBP:647   MisRate:0.08%    MPKI:0.00
PC:18b5a     Total:5503      MisBP:673   MisRate:12.23%    MPKI:0.00
PC:11e18     Total:5215      MisBP:702   MisRate:13.46%    MPKI:0.00
PC:18d68     Total:5264      MisBP:944   MisRate:17.93%    MPKI:0.00
PC:18c88     Total:21926      MisBP:1114   MisRate:5.08%    MPKI:0.00
PC:18c5a     Total:20500      MisBP:1728   MisRate:8.43%    MPKI:0.01
PC:11e7e     Total:47245      MisBP:1917   MisRate:4.06%    MPKI:0.01
PC:14a5a     Total:304352      MisBP:2230   MisRate:0.73%    MPKI:0.01
PC:165e6     Total:13722      MisBP:2351   MisRate:17.13%    MPKI:0.01
PC:16740     Total:9881      MisBP:2371   MisRate:24.00%    MPKI:0.01
PC:18bec     Total:33249      MisBP:2538   MisRate:7.63%    MPKI:0.01
PC:18cd0     Total:22635      MisBP:2606   MisRate:11.51%    MPKI:0.01
PC:16752     Total:14028      MisBP:2773   MisRate:19.77%    MPKI:0.01
PC:18dd0     Total:108808      MisBP:3244   MisRate:2.98%    MPKI:0.01
PC:11aee     Total:195702      MisBP:3529   MisRate:1.80%    MPKI:0.01
PC:165f8     Total:39193      MisBP:3609   MisRate:9.21%    MPKI:0.01
PC:11ada     Total:218272      MisBP:3831   MisRate:1.76%    MPKI:0.01
PC:11ac4     Total:257351      MisBP:5205   MisRate:2.02%    MPKI:0.02
PC:123d8     Total:100330      MisBP:5587   MisRate:5.57%    MPKI:0.02
PC:12476     Total:37697      MisBP:6142   MisRate:16.29%    MPKI:0.02
PC:11f64     Total:56145      MisBP:6401   MisRate:11.40%    MPKI:0.02
PC:12430     Total:34318      MisBP:6447   MisRate:18.79%    MPKI:0.02
PC:11e6a     Total:94286      MisBP:6483   MisRate:6.88%    MPKI:0.02
PC:13086     Total:910987      MisBP:6523   MisRate:0.72%    MPKI:0.02
PC:11aae     Total:325183      MisBP:7106   MisRate:2.19%    MPKI:0.02
PC:123f8     Total:38223      MisBP:7290   MisRate:19.07%    MPKI:0.02
PC:11ae6     Total:210538      MisBP:7646   MisRate:3.63%    MPKI:0.02
PC:11a98     Total:388499      MisBP:9110   MisRate:2.34%    MPKI:0.03
PC:11ad0     Total:246737      MisBP:10070   MisRate:4.08%    MPKI:0.03
PC:124aa     Total:42178      MisBP:11203   MisRate:26.56%    MPKI:0.04
PC:11f08     Total:69821      MisBP:11308   MisRate:16.20%    MPKI:0.04
PC:12242     Total:85357      MisBP:12680   MisRate:14.86%    MPKI:0.04
PC:11aba     Total:299773      MisBP:12851   MisRate:4.29%    MPKI:0.04
PC:150d8     Total:115602      MisBP:12895   MisRate:11.15%    MPKI:0.04
PC:11a82     Total:474492      MisBP:14275   MisRate:3.01%    MPKI:0.05
PC:11aa4     Total:345436      MisBP:14600   MisRate:4.23%    MPKI:0.05
PC:11a6c     Total:597042      MisBP:17255   MisRate:2.89%    MPKI:0.06
PC:11a8e     Total:420678      MisBP:19702   MisRate:4.68%    MPKI:0.06
PC:12d8a     Total:206892      MisBP:20524   MisRate:9.92%    MPKI:0.07
PC:11a78     Total:504011      MisBP:20992   MisRate:4.16%    MPKI:0.07
PC:12418     Total:506715      MisBP:21176   MisRate:4.18%    MPKI:0.07
PC:11a5e     Total:625844      MisBP:21199   MisRate:3.39%    MPKI:0.07
PC:1546e     Total:251262      MisBP:21473   MisRate:8.55%    MPKI:0.07
PC:15402     Total:279762      MisBP:21504   MisRate:7.69%    MPKI:0.07
PC:12030     Total:2495849      MisBP:23012   MisRate:0.92%    MPKI:0.07
PC:12454     Total:393224      MisBP:25712   MisRate:6.54%    MPKI:0.08
PC:11ec8     Total:138002      MisBP:26154   MisRate:18.95%    MPKI:0.08
PC:11a4a     Total:805155      MisBP:28676   MisRate:3.56%    MPKI:0.09
PC:150e2     Total:261859      MisBP:30987   MisRate:11.83%    MPKI:0.10
PC:11a20     Total:784378      MisBP:31273   MisRate:3.99%    MPKI:0.10
PC:11a3a     Total:879629      MisBP:31836   MisRate:3.62%    MPKI:0.10
PC:123ba     Total:409870      MisBP:32422   MisRate:7.91%    MPKI:0.10
PC:1234a     Total:566780      MisBP:33463   MisRate:5.90%    MPKI:0.11
PC:122f2     Total:663046      MisBP:33553   MisRate:5.06%    MPKI:0.11
PC:11a28     Total:757893      MisBP:34765   MisRate:4.59%    MPKI:0.11
PC:11f5c     Total:3827593      MisBP:36819   MisRate:0.96%    MPKI:0.12
PC:1236c     Total:644950      MisBP:40124   MisRate:6.22%    MPKI:0.13
PC:122be     Total:566112      MisBP:41389   MisRate:7.31%    MPKI:0.13
PC:11a04     Total:893751      MisBP:42417   MisRate:4.75%    MPKI:0.14
PC:12102     Total:723145      MisBP:45155   MisRate:6.24%    MPKI:0.15
PC:123c4     Total:116535      MisBP:46225   MisRate:39.67%    MPKI:0.15
PC:12314     Total:690658      MisBP:48266   MisRate:6.99%    MPKI:0.16
PC:130c2     Total:1013583      MisBP:51256   MisRate:5.06%    MPKI:0.17
PC:1508e     Total:245277      MisBP:51887   MisRate:21.15%    MPKI:0.17
PC:1215e     Total:763130      MisBP:55913   MisRate:7.33%    MPKI:0.18
PC:11a0c     Total:847631      MisBP:62259   MisRate:7.35%    MPKI:0.20
PC:119fc     Total:1010614      MisBP:62292   MisRate:6.16%    MPKI:0.20
PC:119f4     Total:1074571      MisBP:66926   MisRate:6.23%    MPKI:0.22
PC:119e4     Total:1282775      MisBP:74070   MisRate:5.77%    MPKI:0.24
PC:12250     Total:464476      MisBP:81182   MisRate:17.48%    MPKI:0.26
PC:1508c     Total:728440      MisBP:96932   MisRate:13.31%    MPKI:0.31
PC:150f4     Total:4904295      MisBP:118302   MisRate:2.41%    MPKI:0.38
PC:14a2e     Total:625820      MisBP:130497   MisRate:20.85%    MPKI:0.42
PC:119dc     Total:1460874      MisBP:153170   MisRate:10.48%    MPKI:0.49
PC:12014     Total:1460095      MisBP:168222   MisRate:11.52%    MPKI:0.54
PC:119ec     Total:1188452      MisBP:179225   MisRate:15.08%    MPKI:0.58
PC:12042     Total:1820329      MisBP:190698   MisRate:10.48%    MPKI:0.62
PC:1238c     Total:871501      MisBP:192729   MisRate:22.11%    MPKI:0.62
PC:119d4     Total:1616815      MisBP:207376   MisRate:12.83%    MPKI:0.67
PC:12334     Total:1012879      MisBP:210668   MisRate:20.80%    MPKI:0.68
PC:122dc     Total:918043      MisBP:221413   MisRate:24.12%    MPKI:0.71
PC:119cc     Total:1982073      MisBP:274022   MisRate:13.83%    MPKI:0.88
PC:11f40     Total:3491683      MisBP:277470   MisRate:7.95%    MPKI:0.90
PC:119b6     Total:3000036      MisBP:299296   MisRate:9.98%    MPKI:0.97
PC:12040     Total:2687083      MisBP:309289   MisRate:11.51%    MPKI:1.00
Totfetch:584666286  TotInsts:310000000  TotMis : inf%   MPKI : 14.67
=============finish sim!!!!!!=============
Done running SimPoint!
