Global frequency set at 1000000000000 ticks per second
 Register [printBranch()] ExitCallback !!!!!!! 
gem5 Simulator System.  https://www.gem5.org
gem5 is copyrighted software; use the --copyright option for details.

gem5 version 22.0.0.2
gem5 compiled Sep  7 2022 00:42:18
gem5 started Sep  7 2022 01:25:58
gem5 executing on a100, pid 2711944
command line: /data/zxf/gem5/gem5-prof/build/ARM/gem5.fast --outdir=/data/zxf/checkpoint/spec2006/445.gobmk/prof/gobmk_ckp_1 /data/zxf/gem5/gem5-prof/configs/example/se.py --cpu-type O3CPU --cpu-clock 1GHz --num-cpu 1 --caches --l2cache --l1i_size 32kB --l1d_size 32kB --l2_size 1MB --l1i_assoc 8 --l1d_assoc 8 --l2_assoc 16 --cacheline_size 64 --mem-type DDR3_2133_8x8 --mem-size 16GB --l1d-hwp-type=BOPPrefetcher --restore-simpoint-checkpoint -r 1 --checkpoint-dir /data/zxf/checkpoint/spec2006/445.gobmk/ckpt -i 13x13.tst -c gobmk_base.gcc41-64bit -o '--quiet --mode gtp'

info: Standard input is not a terminal, disabling listeners.
Resuming from /data/zxf/checkpoint/spec2006/445.gobmk/ckpt/cpt.simpoint_00_inst_5690000000_weight_0.099557_interval_300000000_warmup_10000000
Resuming from SimPoint #0, start_inst:5690000000, weight:0.099557, interval:300000000, warmup:10000000
Switch at curTick count:10000
Switched CPUS @ tick 3835877505500
[(<m5.objects.ArmCPU.ArmAtomicSimpleCPU object at 0x7f4f13ed2bb0>, <m5.objects.ArmCPU.ArmO3CPU object at 0x7f4f13eebe20>)]
switching cpus



+++++++++++++++++++++++++zxf print simpoint+++++++++++++++++++++++++++
Warmed up! Dumping and resetting stats!


=============start sim!!!!!!=============
PC:2e5f8     Total:231      MisBP:0   MisRate:0.00%    MPKI:0.00
PC:2e672     Total:356      MisBP:0   MisRate:0.00%    MPKI:0.00
PC:19dfc     Total:310      MisBP:0   MisRate:0.00%    MPKI:0.00
PC:19dfe     Total:310      MisBP:0   MisRate:0.00%    MPKI:0.00
PC:2e676     Total:102      MisBP:0   MisRate:0.00%    MPKI:0.00
PC:2e67a     Total:102      MisBP:0   MisRate:0.00%    MPKI:0.00
PC:19e04     Total:100      MisBP:0   MisRate:0.00%    MPKI:0.00
PC:2e67c     Total:1      MisBP:0   MisRate:0.00%    MPKI:0.00
PC:2e5f2     Total:233      MisBP:0   MisRate:0.00%    MPKI:0.00
PC:19d7c     Total:6      MisBP:0   MisRate:0.00%    MPKI:0.00
PC:2e5f4     Total:233      MisBP:0   MisRate:0.00%    MPKI:0.00
PC:2e66e     Total:356      MisBP:0   MisRate:0.00%    MPKI:0.00
PC:19d82     Total:5      MisBP:0   MisRate:0.00%    MPKI:0.00
PC:2e5fc     Total:231      MisBP:0   MisRate:0.00%    MPKI:0.00
PC:19d86     Total:5      MisBP:0   MisRate:0.00%    MPKI:0.00
PC:2e600     Total:214      MisBP:0   MisRate:0.00%    MPKI:0.00
PC:19d8a     Total:5      MisBP:0   MisRate:0.00%    MPKI:0.00
PC:2e602     Total:214      MisBP:0   MisRate:0.00%    MPKI:0.00
PC:2e604     Total:214      MisBP:0   MisRate:0.00%    MPKI:0.00
PC:19d8e     Total:5      MisBP:0   MisRate:0.00%    MPKI:0.00
PC:2e608     Total:214      MisBP:0   MisRate:0.00%    MPKI:0.00
PC:19d92     Total:5      MisBP:0   MisRate:0.00%    MPKI:0.00
PC:3f840     Total:45      MisBP:0   MisRate:0.00%    MPKI:0.00
PC:7cc36     Total:3      MisBP:0   MisRate:0.00%    MPKI:0.00
PC:15928     Total:62188      MisBP:0   MisRate:0.00%    MPKI:0.00
PC:3f302     Total:197      MisBP:0   MisRate:0.00%    MPKI:0.00
PC:401da     Total:45      MisBP:0   MisRate:0.00%    MPKI:0.00
PC:16800     Total:1179      MisBP:0   MisRate:0.00%    MPKI:0.00
PC:416b6     Total:561      MisBP:0   MisRate:0.00%    MPKI:0.00
PC:416bc     Total:560      MisBP:0   MisRate:0.00%    MPKI:0.00
PC:416cc     Total:424      MisBP:0   MisRate:0.00%    MPKI:0.00
PC:416d4     Total:109      MisBP:0   MisRate:0.00%    MPKI:0.00
PC:416e4     Total:42      MisBP:0   MisRate:0.00%    MPKI:0.00
PC:2e60c     Total:1412      MisBP:0   MisRate:0.00%    MPKI:0.00
PC:3d8b84     Total:2      MisBP:0   MisRate:0.00%    MPKI:0.00
PC:14da8     Total:20742      MisBP:0   MisRate:0.00%    MPKI:0.00
PC:7c0e4     Total:8      MisBP:0   MisRate:0.00%    MPKI:0.00
PC:29f0c     Total:2      MisBP:0   MisRate:0.00%    MPKI:0.00
PC:3e788     Total:16      MisBP:0   MisRate:0.00%    MPKI:0.00
PC:3e79c     Total:16      MisBP:0   MisRate:0.00%    MPKI:0.00
PC:14dce     Total:18360      MisBP:0   MisRate:0.00%    MPKI:0.00
PC:3e7a8     Total:138      MisBP:0   MisRate:0.00%    MPKI:0.00
PC:2e66a     Total:1463      MisBP:0   MisRate:0.00%    MPKI:0.00
PC:19df4     Total:12      MisBP:0   MisRate:0.00%    MPKI:0.00
PC:2e6ca     Total:147      MisBP:0   MisRate:0.00%    MPKI:0.00
PC:2e658     Total:244      MisBP:0   MisRate:0.00%    MPKI:0.00
PC:2e65c     Total:244      MisBP:0   MisRate:0.00%    MPKI:0.00
PC:2e660     Total:244      MisBP:0   MisRate:0.00%    MPKI:0.00
PC:2e664     Total:244      MisBP:0   MisRate:0.00%    MPKI:0.00
PC:19dee     Total:12      MisBP:0   MisRate:0.00%    MPKI:0.00
PC:2e666     Total:244      MisBP:0   MisRate:0.00%    MPKI:0.00
PC:19df0     Total:12      MisBP:0   MisRate:0.00%    MPKI:0.00
PC:2e6c4     Total:147      MisBP:0   MisRate:0.00%    MPKI:0.00
PC:19e4e     Total:239      MisBP:0   MisRate:0.00%    MPKI:0.00
PC:2e6c6     Total:147      MisBP:0   MisRate:0.00%    MPKI:0.00
PC:19dde     Total:12      MisBP:0   MisRate:0.00%    MPKI:0.00
PC:19e54     Total:239      MisBP:0   MisRate:0.00%    MPKI:0.00
PC:2e6cc     Total:147      MisBP:0   MisRate:0.00%    MPKI:0.00
PC:2e6d0     Total:147      MisBP:0   MisRate:0.00%    MPKI:0.00
PC:19e5a     Total:236      MisBP:0   MisRate:0.00%    MPKI:0.00
PC:2e6d2     Total:147      MisBP:0   MisRate:0.00%    MPKI:0.00
PC:2e6d6     Total:147      MisBP:0   MisRate:0.00%    MPKI:0.00
PC:2e6d8     Total:147      MisBP:0   MisRate:0.00%    MPKI:0.00
PC:19e62     Total:258      MisBP:0   MisRate:0.00%    MPKI:0.00
PC:2e6da     Total:146      MisBP:0   MisRate:0.00%    MPKI:0.00
PC:19e64     Total:258      MisBP:0   MisRate:0.00%    MPKI:0.00
PC:2e648     Total:172      MisBP:0   MisRate:0.00%    MPKI:0.00
PC:2e610     Total:1412      MisBP:0   MisRate:0.00%    MPKI:0.00
PC:2e614     Total:1412      MisBP:0   MisRate:0.00%    MPKI:0.00
PC:2e616     Total:1412      MisBP:0   MisRate:0.00%    MPKI:0.00
PC:19da0     Total:22      MisBP:0   MisRate:0.00%    MPKI:0.00
PC:19da4     Total:22      MisBP:0   MisRate:0.00%    MPKI:0.00
PC:2e640     Total:172      MisBP:0   MisRate:0.00%    MPKI:0.00
PC:2e644     Total:172      MisBP:0   MisRate:0.00%    MPKI:0.00
PC:2e646     Total:172      MisBP:0   MisRate:0.00%    MPKI:0.00
PC:19dd0     Total:12      MisBP:0   MisRate:0.00%    MPKI:0.00
PC:42ebc     Total:2      MisBP:0   MisRate:0.00%    MPKI:0.00
PC:29882     Total:5      MisBP:0   MisRate:0.00%    MPKI:0.00
PC:2e64a     Total:172      MisBP:0   MisRate:0.00%    MPKI:0.00
PC:19dd4     Total:12      MisBP:0   MisRate:0.00%    MPKI:0.00
PC:194e6     Total:153      MisBP:0   MisRate:0.00%    MPKI:0.00
PC:42ec0     Total:2      MisBP:0   MisRate:0.00%    MPKI:0.00
PC:2e650     Total:251      MisBP:0   MisRate:0.00%    MPKI:0.00
PC:19dda     Total:12      MisBP:0   MisRate:0.00%    MPKI:0.00
PC:42ec6     Total:2      MisBP:0   MisRate:0.00%    MPKI:0.00
PC:2e652     Total:251      MisBP:0   MisRate:0.00%    MPKI:0.00
PC:2e654     Total:244      MisBP:0   MisRate:0.00%    MPKI:0.00
PC:15828     Total:21493      MisBP:0   MisRate:0.00%    MPKI:0.00
PC:3f1c8     Total:367      MisBP:0   MisRate:0.00%    MPKI:0.00
PC:3f1cc     Total:367      MisBP:0   MisRate:0.00%    MPKI:0.00
PC:157f8     Total:23377      MisBP:0   MisRate:0.00%    MPKI:0.00
PC:3f1d2     Total:367      MisBP:0   MisRate:0.00%    MPKI:0.00
PC:3f1da     Total:295      MisBP:0   MisRate:0.00%    MPKI:0.00
PC:15808     Total:21909      MisBP:0   MisRate:0.00%    MPKI:0.00
PC:3f1e2     Total:222      MisBP:0   MisRate:0.00%    MPKI:0.00
PC:3f1f6     Total:354      MisBP:0   MisRate:0.00%    MPKI:0.00
PC:15824     Total:21493      MisBP:0   MisRate:0.00%    MPKI:0.00
PC:3f1fe     Total:211      MisBP:0   MisRate:0.00%    MPKI:0.00
PC:3f1c4     Total:367      MisBP:0   MisRate:0.00%    MPKI:0.00
PC:3f202     Total:211      MisBP:0   MisRate:0.00%    MPKI:0.00
PC:1582c     Total:21493      MisBP:0   MisRate:0.00%    MPKI:0.00
PC:3f206     Total:211      MisBP:0   MisRate:0.00%    MPKI:0.00
PC:15830     Total:21493      MisBP:0   MisRate:0.00%    MPKI:0.00
PC:3f20a     Total:211      MisBP:0   MisRate:0.00%    MPKI:0.00
PC:15838     Total:26811      MisBP:0   MisRate:0.00%    MPKI:0.00
PC:3f212     Total:211      MisBP:0   MisRate:0.00%    MPKI:0.00
PC:1583c     Total:26811      MisBP:0   MisRate:0.00%    MPKI:0.00
PC:3f216     Total:209      MisBP:0   MisRate:0.00%    MPKI:0.00
PC:15840     Total:24373      MisBP:0   MisRate:0.00%    MPKI:0.00
PC:18b44     Total:130      MisBP:0   MisRate:0.00%    MPKI:0.00
PC:49a5a     Total:258      MisBP:0   MisRate:0.00%    MPKI:0.00
PC:49a5c     Total:258      MisBP:0   MisRate:0.00%    MPKI:0.00
PC:49a5e     Total:258      MisBP:0   MisRate:0.00%    MPKI:0.00
PC:49a60     Total:258      MisBP:0   MisRate:0.00%    MPKI:0.00
PC:49a64     Total:311      MisBP:0   MisRate:0.00%    MPKI:0.00
PC:49a66     Total:1244      MisBP:0   MisRate:0.00%    MPKI:0.00
PC:41c2a     Total:18      MisBP:0   MisRate:0.00%    MPKI:0.00
PC:18256     Total:226      MisBP:0   MisRate:0.00%    MPKI:0.00
PC:41c30     Total:15      MisBP:0   MisRate:0.00%    MPKI:0.00
PC:4251e     Total:24      MisBP:0   MisRate:0.00%    MPKI:0.00
PC:1584c     Total:24373      MisBP:0   MisRate:0.00%    MPKI:0.00
PC:157ac     Total:64709      MisBP:0   MisRate:0.00%    MPKI:0.00
PC:3f186     Total:281      MisBP:0   MisRate:0.00%    MPKI:0.00
PC:3f198     Total:283      MisBP:0   MisRate:0.00%    MPKI:0.00
PC:3f19e     Total:279      MisBP:0   MisRate:0.00%    MPKI:0.00
PC:3f1a2     Total:279      MisBP:0   MisRate:0.00%    MPKI:0.00
PC:3f1aa     Total:304      MisBP:0   MisRate:0.00%    MPKI:0.00
PC:3f1b0     Total:303      MisBP:0   MisRate:0.00%    MPKI:0.00
PC:3f1b6     Total:374      MisBP:0   MisRate:0.00%    MPKI:0.00
PC:3f1bc     Total:374      MisBP:0   MisRate:0.00%    MPKI:0.00
PC:158e8     Total:7822      MisBP:0   MisRate:0.00%    MPKI:0.00
PC:7cbee     Total:112      MisBP:0   MisRate:0.00%    MPKI:0.00
PC:158be     Total:26006      MisBP:0   MisRate:0.00%    MPKI:0.00
PC:3f298     Total:125      MisBP:0   MisRate:0.00%    MPKI:0.00
PC:7cbfa     Total:110      MisBP:0   MisRate:0.00%    MPKI:0.00
PC:158cc     Total:14439      MisBP:0   MisRate:0.00%    MPKI:0.00
PC:3f2a6     Total:125      MisBP:0   MisRate:0.00%    MPKI:0.00
PC:7cc08     Total:104      MisBP:0   MisRate:0.00%    MPKI:0.00
PC:3f2aa     Total:48      MisBP:0   MisRate:0.00%    MPKI:0.00
PC:3f2ae     Total:48      MisBP:0   MisRate:0.00%    MPKI:0.00
PC:7cc10     Total:72      MisBP:0   MisRate:0.00%    MPKI:0.00
PC:3f28c     Total:128      MisBP:0   MisRate:0.00%    MPKI:0.00
PC:3f2c2     Total:48      MisBP:0   MisRate:0.00%    MPKI:0.00
PC:7cc24     Total:21      MisBP:0   MisRate:0.00%    MPKI:0.00
PC:3f2c6     Total:3      MisBP:0   MisRate:0.00%    MPKI:0.00
PC:158f2     Total:7636      MisBP:0   MisRate:0.00%    MPKI:0.00
PC:3f2cc     Total:3      MisBP:0   MisRate:0.00%    MPKI:0.00
PC:7cc2e     Total:3      MisBP:0   MisRate:0.00%    MPKI:0.00
PC:3f2d0     Total:3      MisBP:0   MisRate:0.00%    MPKI:0.00
PC:7cc32     Total:3      MisBP:0   MisRate:0.00%    MPKI:0.00
PC:158fa     Total:7671      MisBP:0   MisRate:0.00%    MPKI:0.00
PC:3f2d4     Total:3      MisBP:0   MisRate:0.00%    MPKI:0.00
PC:15914     Total:627272      MisBP:0   MisRate:0.00%    MPKI:0.00
PC:3f226     Total:263      MisBP:0   MisRate:0.00%    MPKI:0.00
PC:15852     Total:24373      MisBP:0   MisRate:0.00%    MPKI:0.00
PC:3f22c     Total:263      MisBP:0   MisRate:0.00%    MPKI:0.00
PC:1588a     Total:19662      MisBP:0   MisRate:0.00%    MPKI:0.00
PC:3f264     Total:194      MisBP:0   MisRate:0.00%    MPKI:0.00
PC:3f26a     Total:194      MisBP:0   MisRate:0.00%    MPKI:0.00
PC:158a2     Total:15965      MisBP:0   MisRate:0.00%    MPKI:0.00
PC:3f27c     Total:175      MisBP:0   MisRate:0.00%    MPKI:0.00
PC:7cbde     Total:10      MisBP:0   MisRate:0.00%    MPKI:0.00
PC:3f2ea     Total:181      MisBP:0   MisRate:0.00%    MPKI:0.00
PC:2e6dc     Total:146      MisBP:0   MisRate:0.00%    MPKI:0.00
PC:3f2ee     Total:136      MisBP:0   MisRate:0.00%    MPKI:0.00
PC:15920     Total:62205      MisBP:0   MisRate:0.00%    MPKI:0.00
PC:3f2fa     Total:220      MisBP:0   MisRate:0.00%    MPKI:0.00
PC:15924     Total:62188      MisBP:0   MisRate:0.00%    MPKI:0.00
PC:3f2fe     Total:220      MisBP:0   MisRate:0.00%    MPKI:0.00
PC:158ac     Total:14980      MisBP:0   MisRate:0.00%    MPKI:0.00
PC:3f286     Total:128      MisBP:0   MisRate:0.00%    MPKI:0.00
PC:7cbe8     Total:112      MisBP:0   MisRate:0.00%    MPKI:0.00
PC:158b2     Total:107476      MisBP:0   MisRate:0.00%    MPKI:0.00
PC:40b9e     Total:234      MisBP:0   MisRate:0.00%    MPKI:0.00
PC:40b84     Total:2169      MisBP:0   MisRate:0.00%    MPKI:0.00
PC:40b86     Total:2169      MisBP:0   MisRate:0.00%    MPKI:0.00
PC:40b88     Total:2169      MisBP:0   MisRate:0.00%    MPKI:0.00
PC:40b8c     Total:1691      MisBP:0   MisRate:0.00%    MPKI:0.00
PC:40b8e     Total:235      MisBP:0   MisRate:0.00%    MPKI:0.00
PC:40b90     Total:235      MisBP:0   MisRate:0.00%    MPKI:0.00
PC:40b92     Total:234      MisBP:0   MisRate:0.00%    MPKI:0.00
PC:40b94     Total:234      MisBP:0   MisRate:0.00%    MPKI:0.00
PC:40b96     Total:234      MisBP:0   MisRate:0.00%    MPKI:0.00
PC:40b9a     Total:234      MisBP:0   MisRate:0.00%    MPKI:0.00
PC:40b80     Total:2168      MisBP:0   MisRate:0.00%    MPKI:0.00
PC:40ba0     Total:234      MisBP:0   MisRate:0.00%    MPKI:0.00
PC:40ba6     Total:232      MisBP:0   MisRate:0.00%    MPKI:0.00
PC:40baa     Total:232      MisBP:0   MisRate:0.00%    MPKI:0.00
PC:40bae     Total:230      MisBP:0   MisRate:0.00%    MPKI:0.00
PC:40bb2     Total:227      MisBP:0   MisRate:0.00%    MPKI:0.00
PC:40bb4     Total:227      MisBP:0   MisRate:0.00%    MPKI:0.00
PC:19446     Total:978      MisBP:0   MisRate:0.00%    MPKI:0.00
PC:42e2a     Total:17      MisBP:0   MisRate:0.00%    MPKI:0.00
PC:4253c     Total:20      MisBP:0   MisRate:0.00%    MPKI:0.00
PC:19454     Total:57      MisBP:0   MisRate:0.00%    MPKI:0.00
PC:40b74     Total:1787      MisBP:0   MisRate:0.00%    MPKI:0.00
PC:40b5c     Total:6840      MisBP:0   MisRate:0.00%    MPKI:0.00
PC:40b5e     Total:6840      MisBP:0   MisRate:0.00%    MPKI:0.00
PC:40b60     Total:6840      MisBP:0   MisRate:0.00%    MPKI:0.00
PC:40b62     Total:6840      MisBP:0   MisRate:0.00%    MPKI:0.00
PC:40b64     Total:6714      MisBP:0   MisRate:0.00%    MPKI:0.00
PC:40b68     Total:1807      MisBP:0   MisRate:0.00%    MPKI:0.00
PC:40b6a     Total:1787      MisBP:0   MisRate:0.00%    MPKI:0.00
PC:40b6c     Total:1787      MisBP:0   MisRate:0.00%    MPKI:0.00
PC:40b6e     Total:1787      MisBP:0   MisRate:0.00%    MPKI:0.00
PC:40b70     Total:1787      MisBP:0   MisRate:0.00%    MPKI:0.00
PC:42540     Total:7      MisBP:0   MisRate:0.00%    MPKI:0.00
PC:40b76     Total:1765      MisBP:0   MisRate:0.00%    MPKI:0.00
PC:40b78     Total:1765      MisBP:0   MisRate:0.00%    MPKI:0.00
PC:40b7c     Total:2385      MisBP:0   MisRate:0.00%    MPKI:0.00
PC:40b7e     Total:2379      MisBP:0   MisRate:0.00%    MPKI:0.00
PC:40b40     Total:3252      MisBP:0   MisRate:0.00%    MPKI:0.00
PC:40b42     Total:3252      MisBP:0   MisRate:0.00%    MPKI:0.00
PC:40b46     Total:3252      MisBP:0   MisRate:0.00%    MPKI:0.00
PC:40b48     Total:3252      MisBP:0   MisRate:0.00%    MPKI:0.00
PC:40b4c     Total:3252      MisBP:0   MisRate:0.00%    MPKI:0.00
PC:31c5c     Total:121      MisBP:0   MisRate:0.00%    MPKI:0.00
PC:85000     Total:973      MisBP:0   MisRate:0.00%    MPKI:0.00
PC:31c4c     Total:141      MisBP:0   MisRate:0.00%    MPKI:0.00
PC:31c4e     Total:141      MisBP:0   MisRate:0.00%    MPKI:0.00
PC:85004     Total:973      MisBP:0   MisRate:0.00%    MPKI:0.00
PC:85006     Total:973      MisBP:0   MisRate:0.00%    MPKI:0.00
PC:31c52     Total:121      MisBP:0   MisRate:0.00%    MPKI:0.00
PC:31c54     Total:121      MisBP:0   MisRate:0.00%    MPKI:0.00
PC:8500c     Total:973      MisBP:0   MisRate:0.00%    MPKI:0.00
PC:31c58     Total:121      MisBP:0   MisRate:0.00%    MPKI:0.00
PC:85010     Total:1490      MisBP:0   MisRate:0.00%    MPKI:0.00
PC:31c48     Total:7      MisBP:0   MisRate:0.00%    MPKI:0.00
PC:31c5e     Total:121      MisBP:0   MisRate:0.00%    MPKI:0.00
PC:85014     Total:1490      MisBP:0   MisRate:0.00%    MPKI:0.00
PC:31c60     Total:121      MisBP:0   MisRate:0.00%    MPKI:0.00
PC:31c64     Total:121      MisBP:0   MisRate:0.00%    MPKI:0.00
PC:8501a     Total:1464      MisBP:0   MisRate:0.00%    MPKI:0.00
PC:31c66     Total:121      MisBP:0   MisRate:0.00%    MPKI:0.00
PC:1b926     Total:2323      MisBP:0   MisRate:0.00%    MPKI:0.00
PC:3d8bbc     Total:11      MisBP:0   MisRate:0.00%    MPKI:0.00
PC:986b4     Total:12      MisBP:0   MisRate:0.00%    MPKI:0.00
PC:8501c     Total:1464      MisBP:0   MisRate:0.00%    MPKI:0.00
PC:2e73c     Total:1      MisBP:0   MisRate:0.00%    MPKI:0.00
PC:2e730     Total:1      MisBP:0   MisRate:0.00%    MPKI:0.00
PC:19eba     Total:29      MisBP:0   MisRate:0.00%    MPKI:0.00
PC:2e732     Total:1      MisBP:0   MisRate:0.00%    MPKI:0.00
PC:2e736     Total:1      MisBP:0   MisRate:0.00%    MPKI:0.00
PC:195d2     Total:4040      MisBP:0   MisRate:0.00%    MPKI:0.00
PC:42fac     Total:295      MisBP:0   MisRate:0.00%    MPKI:0.00
PC:2e73a     Total:1      MisBP:0   MisRate:0.00%    MPKI:0.00
PC:195d6     Total:3798      MisBP:0   MisRate:0.00%    MPKI:0.00
PC:42fb0     Total:295      MisBP:0   MisRate:0.00%    MPKI:0.00
PC:19ec4     Total:13      MisBP:0   MisRate:0.00%    MPKI:0.00
PC:40b5a     Total:6840      MisBP:0   MisRate:0.00%    MPKI:0.00
PC:2e73e     Total:1      MisBP:0   MisRate:0.00%    MPKI:0.00
PC:195da     Total:3797      MisBP:0   MisRate:0.00%    MPKI:0.00
PC:42fb4     Total:8      MisBP:0   MisRate:0.00%    MPKI:0.00
PC:19ec8     Total:13      MisBP:0   MisRate:0.00%    MPKI:0.00
PC:84ff6     Total:464      MisBP:0   MisRate:0.00%    MPKI:0.00
PC:31c42     Total:7      MisBP:0   MisRate:0.00%    MPKI:0.00
PC:84ffa     Total:464      MisBP:0   MisRate:0.00%    MPKI:0.00
PC:31c46     Total:7      MisBP:0   MisRate:0.00%    MPKI:0.00
PC:84ffc     Total:464      MisBP:0   MisRate:0.00%    MPKI:0.00
PC:2e714     Total:299      MisBP:0   MisRate:0.00%    MPKI:0.00
PC:2e6fc     Total:145      MisBP:0   MisRate:0.00%    MPKI:0.00
PC:19e86     Total:63      MisBP:0   MisRate:0.00%    MPKI:0.00
PC:2e708     Total:137      MisBP:0   MisRate:0.00%    MPKI:0.00
PC:19e92     Total:63      MisBP:0   MisRate:0.00%    MPKI:0.00
PC:2e70a     Total:274      MisBP:0   MisRate:0.00%    MPKI:0.00
PC:19e94     Total:63      MisBP:0   MisRate:0.00%    MPKI:0.00
PC:2e70e     Total:137      MisBP:0   MisRate:0.00%    MPKI:0.00
PC:19e98     Total:63      MisBP:0   MisRate:0.00%    MPKI:0.00
PC:2e712     Total:299      MisBP:0   MisRate:0.00%    MPKI:0.00
PC:19e9c     Total:59      MisBP:0   MisRate:0.00%    MPKI:0.00
PC:19e84     Total:63      MisBP:0   MisRate:0.00%    MPKI:0.00
PC:2e716     Total:299      MisBP:0   MisRate:0.00%    MPKI:0.00
PC:19ea0     Total:59      MisBP:0   MisRate:0.00%    MPKI:0.00
PC:2e718     Total:299      MisBP:0   MisRate:0.00%    MPKI:0.00
PC:19ea2     Total:59      MisBP:0   MisRate:0.00%    MPKI:0.00
PC:2e71a     Total:299      MisBP:0   MisRate:0.00%    MPKI:0.00
PC:2e71c     Total:299      MisBP:0   MisRate:0.00%    MPKI:0.00
PC:19ea6     Total:59      MisBP:0   MisRate:0.00%    MPKI:0.00
PC:2e720     Total:299      MisBP:0   MisRate:0.00%    MPKI:0.00
PC:19eaa     Total:59      MisBP:0   MisRate:0.00%    MPKI:0.00
PC:2e722     Total:299      MisBP:0   MisRate:0.00%    MPKI:0.00
PC:19e74     Total:241      MisBP:0   MisRate:0.00%    MPKI:0.00
PC:2e6de     Total:146      MisBP:0   MisRate:0.00%    MPKI:0.00
PC:19e68     Total:258      MisBP:0   MisRate:0.00%    MPKI:0.00
PC:2e6e0     Total:146      MisBP:0   MisRate:0.00%    MPKI:0.00
PC:2e6e2     Total:146      MisBP:0   MisRate:0.00%    MPKI:0.00
PC:19e6c     Total:249      MisBP:0   MisRate:0.00%    MPKI:0.00
PC:2e6e6     Total:146      MisBP:0   MisRate:0.00%    MPKI:0.00
PC:19e70     Total:241      MisBP:0   MisRate:0.00%    MPKI:0.00
PC:2e6e8     Total:146      MisBP:0   MisRate:0.00%    MPKI:0.00
PC:19e72     Total:241      MisBP:0   MisRate:0.00%    MPKI:0.00
PC:2e6ea     Total:146      MisBP:0   MisRate:0.00%    MPKI:0.00
PC:19eac     Total:59      MisBP:0   MisRate:0.00%    MPKI:0.00
PC:2e6ee     Total:145      MisBP:0   MisRate:0.00%    MPKI:0.00
PC:2e6f0     Total:145      MisBP:0   MisRate:0.00%    MPKI:0.00
PC:19e7a     Total:92      MisBP:0   MisRate:0.00%    MPKI:0.00
PC:2e6f2     Total:145      MisBP:0   MisRate:0.00%    MPKI:0.00
PC:2e6f4     Total:145      MisBP:0   MisRate:0.00%    MPKI:0.00
PC:19e7e     Total:92      MisBP:0   MisRate:0.00%    MPKI:0.00
PC:2e6f6     Total:145      MisBP:0   MisRate:0.00%    MPKI:0.00
PC:19e80     Total:63      MisBP:0   MisRate:0.00%    MPKI:0.00
PC:2e6fa     Total:145      MisBP:0   MisRate:0.00%    MPKI:0.00
PC:40b26     Total:87538      MisBP:0   MisRate:0.00%    MPKI:0.00
PC:40b06     Total:15002      MisBP:0   MisRate:0.00%    MPKI:0.00
PC:40b0a     Total:7501      MisBP:0   MisRate:0.00%    MPKI:0.00
PC:40b10     Total:6829      MisBP:0   MisRate:0.00%    MPKI:0.00
PC:40b14     Total:6822      MisBP:0   MisRate:0.00%    MPKI:0.00
PC:40b16     Total:6822      MisBP:0   MisRate:0.00%    MPKI:0.00
PC:40b18     Total:6822      MisBP:0   MisRate:0.00%    MPKI:0.00
PC:40b1c     Total:6822      MisBP:0   MisRate:0.00%    MPKI:0.00
PC:40b1e     Total:6822      MisBP:0   MisRate:0.00%    MPKI:0.00
PC:40b22     Total:5941      MisBP:0   MisRate:0.00%    MPKI:0.00
PC:40b24     Total:5941      MisBP:0   MisRate:0.00%    MPKI:0.00
PC:40b04     Total:7499      MisBP:0   MisRate:0.00%    MPKI:0.00
PC:40b2a     Total:43769      MisBP:0   MisRate:0.00%    MPKI:0.00
PC:40b2e     Total:47733      MisBP:0   MisRate:0.00%    MPKI:0.00
PC:40b30     Total:47701      MisBP:0   MisRate:0.00%    MPKI:0.00
PC:40b34     Total:3908      MisBP:0   MisRate:0.00%    MPKI:0.00
PC:40b36     Total:3867      MisBP:0   MisRate:0.00%    MPKI:0.00
PC:40b38     Total:3867      MisBP:0   MisRate:0.00%    MPKI:0.00
PC:40b3c     Total:3867      MisBP:0   MisRate:0.00%    MPKI:0.00
PC:40b50     Total:6960      MisBP:0   MisRate:0.00%    MPKI:0.00
PC:40b54     Total:6960      MisBP:0   MisRate:0.00%    MPKI:0.00
PC:40b58     Total:6960      MisBP:0   MisRate:0.00%    MPKI:0.00
PC:1bae0     Total:76      MisBP:0   MisRate:0.00%    MPKI:0.00
PC:2e726     Total:299      MisBP:0   MisRate:0.00%    MPKI:0.00
PC:2e72a     Total:299      MisBP:0   MisRate:0.00%    MPKI:0.00
PC:19eb4     Total:29      MisBP:0   MisRate:0.00%    MPKI:0.00
PC:2e72c     Total:299      MisBP:0   MisRate:0.00%    MPKI:0.00
PC:19eb8     Total:29      MisBP:0   MisRate:0.00%    MPKI:0.00
PC:1babc     Total:486      MisBP:0   MisRate:0.00%    MPKI:0.00
PC:1bad0     Total:76      MisBP:0   MisRate:0.00%    MPKI:0.00
PC:1bad4     Total:76      MisBP:0   MisRate:0.00%    MPKI:0.00
PC:1bad8     Total:76      MisBP:0   MisRate:0.00%    MPKI:0.00
PC:1badc     Total:76      MisBP:0   MisRate:0.00%    MPKI:0.00
PC:49a58     Total:258      MisBP:0   MisRate:0.00%    MPKI:0.00
PC:41e0a     Total:850      MisBP:0   MisRate:0.00%    MPKI:0.00
PC:18430     Total:181      MisBP:0   MisRate:0.00%    MPKI:0.00
PC:18514     Total:2597      MisBP:0   MisRate:0.00%    MPKI:0.00
PC:40af8     Total:1850      MisBP:0   MisRate:0.00%    MPKI:0.00
PC:40afa     Total:1850      MisBP:0   MisRate:0.00%    MPKI:0.00
PC:40afc     Total:1850      MisBP:0   MisRate:0.00%    MPKI:0.00
PC:40afe     Total:1850      MisBP:0   MisRate:0.00%    MPKI:0.00
PC:40b00     Total:1667      MisBP:0   MisRate:0.00%    MPKI:0.00
PC:40b02     Total:1667      MisBP:0   MisRate:0.00%    MPKI:0.00
PC:40c70     Total:302      MisBP:0   MisRate:0.00%    MPKI:0.00
PC:40c4e     Total:89      MisBP:0   MisRate:0.00%    MPKI:0.00
PC:40c52     Total:86      MisBP:0   MisRate:0.00%    MPKI:0.00
PC:40c56     Total:86      MisBP:0   MisRate:0.00%    MPKI:0.00
PC:40c5a     Total:86      MisBP:0   MisRate:0.00%    MPKI:0.00
PC:40c5c     Total:86      MisBP:0   MisRate:0.00%    MPKI:0.00
PC:40c60     Total:86      MisBP:0   MisRate:0.00%    MPKI:0.00
PC:40c64     Total:86      MisBP:0   MisRate:0.00%    MPKI:0.00
PC:40c68     Total:86      MisBP:0   MisRate:0.00%    MPKI:0.00
PC:40c6c     Total:304      MisBP:0   MisRate:0.00%    MPKI:0.00
PC:40c6e     Total:302      MisBP:0   MisRate:0.00%    MPKI:0.00
PC:40c4a     Total:280      MisBP:0   MisRate:0.00%    MPKI:0.00
PC:40c72     Total:302      MisBP:0   MisRate:0.00%    MPKI:0.00
PC:40c74     Total:299      MisBP:0   MisRate:0.00%    MPKI:0.00
PC:40c78     Total:369      MisBP:0   MisRate:0.00%    MPKI:0.00
PC:40c7a     Total:369      MisBP:0   MisRate:0.00%    MPKI:0.00
PC:40cc0     Total:308      MisBP:0   MisRate:0.00%    MPKI:0.00
PC:40cc2     Total:308      MisBP:0   MisRate:0.00%    MPKI:0.00
PC:40cc4     Total:308      MisBP:0   MisRate:0.00%    MPKI:0.00
PC:40cc6     Total:308      MisBP:0   MisRate:0.00%    MPKI:0.00
PC:40cc8     Total:2871      MisBP:0   MisRate:0.00%    MPKI:0.00
PC:40ccc     Total:2871      MisBP:0   MisRate:0.00%    MPKI:0.00
PC:40c22     Total:313      MisBP:0   MisRate:0.00%    MPKI:0.00
PC:40c06     Total:347      MisBP:0   MisRate:0.00%    MPKI:0.00
PC:40c08     Total:347      MisBP:0   MisRate:0.00%    MPKI:0.00
PC:40c0c     Total:347      MisBP:0   MisRate:0.00%    MPKI:0.00
PC:40c10     Total:347      MisBP:0   MisRate:0.00%    MPKI:0.00
PC:40c12     Total:347      MisBP:0   MisRate:0.00%    MPKI:0.00
PC:40c14     Total:347      MisBP:0   MisRate:0.00%    MPKI:0.00
PC:40c18     Total:313      MisBP:0   MisRate:0.00%    MPKI:0.00
PC:40c1a     Total:313      MisBP:0   MisRate:0.00%    MPKI:0.00
PC:40c1c     Total:313      MisBP:0   MisRate:0.00%    MPKI:0.00
PC:40c20     Total:313      MisBP:0   MisRate:0.00%    MPKI:0.00
PC:40cce     Total:2871      MisBP:0   MisRate:0.00%    MPKI:0.00
PC:40c26     Total:13      MisBP:0   MisRate:0.00%    MPKI:0.00
PC:40c2a     Total:13      MisBP:0   MisRate:0.00%    MPKI:0.00
PC:40c2e     Total:12      MisBP:0   MisRate:0.00%    MPKI:0.00
PC:40c32     Total:12      MisBP:0   MisRate:0.00%    MPKI:0.00
PC:40c34     Total:12      MisBP:0   MisRate:0.00%    MPKI:0.00
PC:40c38     Total:12      MisBP:0   MisRate:0.00%    MPKI:0.00
PC:40c3c     Total:11      MisBP:0   MisRate:0.00%    MPKI:0.00
PC:40c44     Total:290      MisBP:0   MisRate:0.00%    MPKI:0.00
PC:40c46     Total:290      MisBP:0   MisRate:0.00%    MPKI:0.00
PC:40d3a     Total:358      MisBP:0   MisRate:0.00%    MPKI:0.00
PC:40d18     Total:482      MisBP:0   MisRate:0.00%    MPKI:0.00
PC:40d1a     Total:482      MisBP:0   MisRate:0.00%    MPKI:0.00
PC:40d1c     Total:482      MisBP:0   MisRate:0.00%    MPKI:0.00
PC:40d20     Total:358      MisBP:0   MisRate:0.00%    MPKI:0.00
PC:40d24     Total:358      MisBP:0   MisRate:0.00%    MPKI:0.00
PC:40d26     Total:358      MisBP:0   MisRate:0.00%    MPKI:0.00
PC:40d2a     Total:358      MisBP:0   MisRate:0.00%    MPKI:0.00
PC:40d2e     Total:358      MisBP:0   MisRate:0.00%    MPKI:0.00
PC:40d32     Total:358      MisBP:0   MisRate:0.00%    MPKI:0.00
PC:40d36     Total:358      MisBP:0   MisRate:0.00%    MPKI:0.00
PC:40d16     Total:482      MisBP:0   MisRate:0.00%    MPKI:0.00
PC:40e68     Total:335      MisBP:0   MisRate:0.00%    MPKI:0.00
PC:40e6a     Total:335      MisBP:0   MisRate:0.00%    MPKI:0.00
PC:40e6c     Total:335      MisBP:0   MisRate:0.00%    MPKI:0.00
PC:40e72     Total:365      MisBP:0   MisRate:0.00%    MPKI:0.00
PC:40e76     Total:365      MisBP:0   MisRate:0.00%    MPKI:0.00
PC:40e7a     Total:365      MisBP:0   MisRate:0.00%    MPKI:0.00
PC:40d3e     Total:278      MisBP:0   MisRate:0.00%    MPKI:0.00
PC:40d42     Total:278      MisBP:0   MisRate:0.00%    MPKI:0.00
PC:40d44     Total:278      MisBP:0   MisRate:0.00%    MPKI:0.00
PC:40d46     Total:278      MisBP:0   MisRate:0.00%    MPKI:0.00
PC:40cf2     Total:441      MisBP:0   MisRate:0.00%    MPKI:0.00
PC:40cd0     Total:5736      MisBP:0   MisRate:0.00%    MPKI:0.00
PC:40cd4     Total:2865      MisBP:0   MisRate:0.00%    MPKI:0.00
PC:40cda     Total:648      MisBP:0   MisRate:0.00%    MPKI:0.00
PC:40cdc     Total:602      MisBP:0   MisRate:0.00%    MPKI:0.00
PC:40cde     Total:602      MisBP:0   MisRate:0.00%    MPKI:0.00
PC:40ce2     Total:602      MisBP:0   MisRate:0.00%    MPKI:0.00
PC:40ce6     Total:602      MisBP:0   MisRate:0.00%    MPKI:0.00
PC:40cea     Total:674      MisBP:0   MisRate:0.00%    MPKI:0.00
PC:40cec     Total:674      MisBP:0   MisRate:0.00%    MPKI:0.00
PC:40cee     Total:674      MisBP:0   MisRate:0.00%    MPKI:0.00
PC:40c02     Total:347      MisBP:0   MisRate:0.00%    MPKI:0.00
PC:40cf6     Total:441      MisBP:0   MisRate:0.00%    MPKI:0.00
PC:40cfa     Total:441      MisBP:0   MisRate:0.00%    MPKI:0.00
PC:40cfe     Total:377      MisBP:0   MisRate:0.00%    MPKI:0.00
PC:40d02     Total:377      MisBP:0   MisRate:0.00%    MPKI:0.00
PC:40d04     Total:377      MisBP:0   MisRate:0.00%    MPKI:0.00
PC:40d0a     Total:482      MisBP:0   MisRate:0.00%    MPKI:0.00
PC:40d0c     Total:482      MisBP:0   MisRate:0.00%    MPKI:0.00
PC:40d10     Total:482      MisBP:0   MisRate:0.00%    MPKI:0.00
PC:40d14     Total:482      MisBP:0   MisRate:0.00%    MPKI:0.00
PC:3cd00     Total:1555      MisBP:0   MisRate:0.00%    MPKI:0.00
PC:3fa7e     Total:1438      MisBP:0   MisRate:0.00%    MPKI:0.00
PC:160aa     Total:56885      MisBP:0   MisRate:0.00%    MPKI:0.00
PC:3fa84     Total:1330      MisBP:0   MisRate:0.00%    MPKI:0.00
PC:160b4     Total:56874      MisBP:0   MisRate:0.00%    MPKI:0.00
PC:3fa8e     Total:1329      MisBP:0   MisRate:0.00%    MPKI:0.00
PC:160c0     Total:52201      MisBP:0   MisRate:0.00%    MPKI:0.00
PC:3fa9a     Total:770      MisBP:0   MisRate:0.00%    MPKI:0.00
PC:3faaa     Total:338      MisBP:0   MisRate:0.00%    MPKI:0.00
PC:160d4     Total:50429      MisBP:0   MisRate:0.00%    MPKI:0.00
PC:3faae     Total:338      MisBP:0   MisRate:0.00%    MPKI:0.00
PC:160a4     Total:59663      MisBP:0   MisRate:0.00%    MPKI:0.00
PC:7a662     Total:171      MisBP:0   MisRate:0.00%    MPKI:0.00
PC:3cd02     Total:1555      MisBP:0   MisRate:0.00%    MPKI:0.00
PC:3cd04     Total:20699      MisBP:0   MisRate:0.00%    MPKI:0.00
PC:7a666     Total:197      MisBP:0   MisRate:0.00%    MPKI:0.00
PC:3cd08     Total:10349      MisBP:0   MisRate:0.00%    MPKI:0.00
PC:7a66a     Total:190      MisBP:0   MisRate:0.00%    MPKI:0.00
PC:3cd0c     Total:11684      MisBP:0   MisRate:0.00%    MPKI:0.00
PC:7a66e     Total:41      MisBP:0   MisRate:0.00%    MPKI:0.00
PC:3cd0e     Total:11676      MisBP:0   MisRate:0.00%    MPKI:0.00
PC:3cd12     Total:1334      MisBP:0   MisRate:0.00%    MPKI:0.00
PC:1607e     Total:28438      MisBP:0   MisRate:0.00%    MPKI:0.00
PC:3fa30     Total:1348      MisBP:0   MisRate:0.00%    MPKI:0.00
PC:3fa34     Total:1348      MisBP:0   MisRate:0.00%    MPKI:0.00
PC:16062     Total:6339      MisBP:0   MisRate:0.00%    MPKI:0.00
PC:3fa3c     Total:1325      MisBP:0   MisRate:0.00%    MPKI:0.00
PC:16066     Total:28822      MisBP:0   MisRate:0.00%    MPKI:0.00
PC:3fa40     Total:1289      MisBP:0   MisRate:0.00%    MPKI:0.00
PC:16070     Total:28820      MisBP:0   MisRate:0.00%    MPKI:0.00
PC:3fa4a     Total:1156      MisBP:0   MisRate:0.00%    MPKI:0.00
PC:16074     Total:28819      MisBP:0   MisRate:0.00%    MPKI:0.00
PC:3fa4e     Total:1156      MisBP:0   MisRate:0.00%    MPKI:0.00
PC:3cd14     Total:1292      MisBP:0   MisRate:0.00%    MPKI:0.00
PC:3fa58     Total:1129      MisBP:0   MisRate:0.00%    MPKI:0.00
PC:16084     Total:26901      MisBP:0   MisRate:0.00%    MPKI:0.00
PC:3fa5e     Total:1368      MisBP:0   MisRate:0.00%    MPKI:0.00
PC:3fa62     Total:1344      MisBP:0   MisRate:0.00%    MPKI:0.00
PC:1b7c0     Total:519      MisBP:0   MisRate:0.00%    MPKI:0.00
PC:1b7d4     Total:519      MisBP:0   MisRate:0.00%    MPKI:0.00
PC:1b7e0     Total:514      MisBP:0   MisRate:0.00%    MPKI:0.00
PC:3fa6a     Total:1336      MisBP:0   MisRate:0.00%    MPKI:0.00
PC:3fa74     Total:1058      MisBP:0   MisRate:0.00%    MPKI:0.00
PC:3e7cc     Total:463      MisBP:0   MisRate:0.00%    MPKI:0.00
PC:16102     Total:36917      MisBP:0   MisRate:0.00%    MPKI:0.00
PC:3fadc     Total:647      MisBP:0   MisRate:0.00%    MPKI:0.00
PC:16106     Total:36916      MisBP:0   MisRate:0.00%    MPKI:0.00
PC:3fae0     Total:647      MisBP:0   MisRate:0.00%    MPKI:0.00
PC:3fae8     Total:489      MisBP:0   MisRate:0.00%    MPKI:0.00
PC:3faec     Total:489      MisBP:0   MisRate:0.00%    MPKI:0.00
PC:3fafc     Total:293      MisBP:0   MisRate:0.00%    MPKI:0.00
PC:3e7bc     Total:633      MisBP:0   MisRate:0.00%    MPKI:0.00
PC:29f46     Total:44      MisBP:0   MisRate:0.00%    MPKI:0.00
PC:14df2     Total:66755      MisBP:0   MisRate:0.00%    MPKI:0.00
PC:3fad8     Total:647      MisBP:0   MisRate:0.00%    MPKI:0.00
PC:29f56     Total:12      MisBP:0   MisRate:0.00%    MPKI:0.00
PC:14dfc     Total:66383      MisBP:0   MisRate:0.00%    MPKI:0.00
PC:3e7d6     Total:387      MisBP:0   MisRate:0.00%    MPKI:0.00
PC:14e00     Total:63137      MisBP:0   MisRate:0.00%    MPKI:0.00
PC:3e7da     Total:390      MisBP:0   MisRate:0.00%    MPKI:0.00
PC:29f64     Total:3      MisBP:0   MisRate:0.00%    MPKI:0.00
PC:40bf4     Total:3617      MisBP:0   MisRate:0.00%    MPKI:0.00
PC:40bf8     Total:360      MisBP:0   MisRate:0.00%    MPKI:0.00
PC:40bfc     Total:358      MisBP:0   MisRate:0.00%    MPKI:0.00
PC:40bfe     Total:347      MisBP:0   MisRate:0.00%    MPKI:0.00
PC:7a694     Total:24      MisBP:0   MisRate:0.00%    MPKI:0.00
PC:3cd18     Total:1292      MisBP:0   MisRate:0.00%    MPKI:0.00
PC:3cd1c     Total:1292      MisBP:0   MisRate:0.00%    MPKI:0.00
PC:3cd20     Total:1292      MisBP:0   MisRate:0.00%    MPKI:0.00
PC:3cd22     Total:1278      MisBP:0   MisRate:0.00%    MPKI:0.00
PC:3cd24     Total:1278      MisBP:0   MisRate:0.00%    MPKI:0.00
PC:7a686     Total:24      MisBP:0   MisRate:0.00%    MPKI:0.00
PC:3cd28     Total:1264      MisBP:0   MisRate:0.00%    MPKI:0.00
PC:3cd2c     Total:1196      MisBP:0   MisRate:0.00%    MPKI:0.00
PC:3cd30     Total:1162      MisBP:0   MisRate:0.00%    MPKI:0.00
PC:3cd32     Total:2      MisBP:0   MisRate:0.00%    MPKI:0.00
PC:40d48     Total:278      MisBP:0   MisRate:0.00%    MPKI:0.00
PC:3cd36     Total:2      MisBP:0   MisRate:0.00%    MPKI:0.00
PC:7a698     Total:24      MisBP:0   MisRate:0.00%    MPKI:0.00
PC:3cd38     Total:209      MisBP:0   MisRate:0.00%    MPKI:0.00
PC:3cd3c     Total:209      MisBP:0   MisRate:0.00%    MPKI:0.00
PC:3fac0     Total:167      MisBP:0   MisRate:0.00%    MPKI:0.00
PC:160f0     Total:45931      MisBP:0   MisRate:0.00%    MPKI:0.00
PC:3faca     Total:61      MisBP:0   MisRate:0.00%    MPKI:0.00
PC:160f8     Total:46399      MisBP:0   MisRate:0.00%    MPKI:0.00
PC:3fad2     Total:61      MisBP:0   MisRate:0.00%    MPKI:0.00
PC:16730     Total:2      MisBP:0   MisRate:0.00%    MPKI:0.00
PC:15e3e     Total:26676      MisBP:0   MisRate:0.00%    MPKI:0.00
PC:3f818     Total:71      MisBP:0   MisRate:0.00%    MPKI:0.00
PC:934ba     Total:4      MisBP:0   MisRate:0.00%    MPKI:0.00
PC:40106     Total:148      MisBP:0   MisRate:0.00%    MPKI:0.00
PC:1672c     Total:2      MisBP:0   MisRate:0.00%    MPKI:0.00
PC:15e40     Total:25633      MisBP:0   MisRate:0.00%    MPKI:0.00
PC:3f81a     Total:71      MisBP:0   MisRate:0.00%    MPKI:0.00
PC:3f81c     Total:71      MisBP:0   MisRate:0.00%    MPKI:0.00
PC:934be     Total:4      MisBP:0   MisRate:0.00%    MPKI:0.00
PC:4010a     Total:148      MisBP:0   MisRate:0.00%    MPKI:0.00
PC:3f816     Total:21      MisBP:0   MisRate:0.00%    MPKI:0.00
PC:15e44     Total:25632      MisBP:0   MisRate:0.00%    MPKI:0.00
PC:3f81e     Total:71      MisBP:0   MisRate:0.00%    MPKI:0.00
PC:3f820     Total:71      MisBP:0   MisRate:0.00%    MPKI:0.00
PC:934c2     Total:1      MisBP:0   MisRate:0.00%    MPKI:0.00
PC:4010e     Total:148      MisBP:0   MisRate:0.00%    MPKI:0.00
PC:16734     Total:2      MisBP:0   MisRate:0.00%    MPKI:0.00
PC:15e48     Total:25629      MisBP:0   MisRate:0.00%    MPKI:0.00
PC:3f822     Total:75      MisBP:0   MisRate:0.00%    MPKI:0.00
PC:3f826     Total:75      MisBP:0   MisRate:0.00%    MPKI:0.00
PC:3f82a     Total:75      MisBP:0   MisRate:0.00%    MPKI:0.00
PC:3f80c     Total:62      MisBP:0   MisRate:0.00%    MPKI:0.00
PC:16712     Total:2      MisBP:0   MisRate:0.00%    MPKI:0.00
PC:15e28     Total:22256      MisBP:0   MisRate:0.00%    MPKI:0.00
PC:3f802     Total:63      MisBP:0   MisRate:0.00%    MPKI:0.00
PC:15e2c     Total:22252      MisBP:0   MisRate:0.00%    MPKI:0.00
PC:3f806     Total:63      MisBP:0   MisRate:0.00%    MPKI:0.00
PC:15e2e     Total:22249      MisBP:0   MisRate:0.00%    MPKI:0.00
PC:3f808     Total:63      MisBP:0   MisRate:0.00%    MPKI:0.00
PC:934aa     Total:4      MisBP:0   MisRate:0.00%    MPKI:0.00
PC:1671c     Total:2      MisBP:0   MisRate:0.00%    MPKI:0.00
PC:3f80a     Total:63      MisBP:0   MisRate:0.00%    MPKI:0.00
PC:15e52     Total:25639      MisBP:0   MisRate:0.00%    MPKI:0.00
PC:15e34     Total:26683      MisBP:0   MisRate:0.00%    MPKI:0.00
PC:3f80e     Total:62      MisBP:0   MisRate:0.00%    MPKI:0.00
PC:15e36     Total:26683      MisBP:0   MisRate:0.00%    MPKI:0.00
PC:3f810     Total:43      MisBP:0   MisRate:0.00%    MPKI:0.00
PC:15e3a     Total:26680      MisBP:0   MisRate:0.00%    MPKI:0.00
PC:3f814     Total:21      MisBP:0   MisRate:0.00%    MPKI:0.00
PC:934b6     Total:4      MisBP:0   MisRate:0.00%    MPKI:0.00
PC:40102     Total:148      MisBP:0   MisRate:0.00%    MPKI:0.00
PC:16728     Total:2      MisBP:0   MisRate:0.00%    MPKI:0.00
PC:1b9e0     Total:169      MisBP:0   MisRate:0.00%    MPKI:0.00
PC:1b9ca     Total:201      MisBP:0   MisRate:0.00%    MPKI:0.00
PC:1b9cc     Total:201      MisBP:0   MisRate:0.00%    MPKI:0.00
PC:1b9ce     Total:201      MisBP:0   MisRate:0.00%    MPKI:0.00
PC:1b9d0     Total:201      MisBP:0   MisRate:0.00%    MPKI:0.00
PC:1b9d2     Total:176      MisBP:0   MisRate:0.00%    MPKI:0.00
PC:1b9d4     Total:172      MisBP:0   MisRate:0.00%    MPKI:0.00
PC:1b9d6     Total:172      MisBP:0   MisRate:0.00%    MPKI:0.00
PC:1b9d8     Total:172      MisBP:0   MisRate:0.00%    MPKI:0.00
PC:1b9da     Total:172      MisBP:0   MisRate:0.00%    MPKI:0.00
PC:1b9dc     Total:172      MisBP:0   MisRate:0.00%    MPKI:0.00
PC:16752     Total:1      MisBP:0   MisRate:0.00%    MPKI:0.00
PC:1b9e2     Total:169      MisBP:0   MisRate:0.00%    MPKI:0.00
PC:180a8     Total:66659      MisBP:0   MisRate:0.00%    MPKI:0.00
PC:41a82     Total:1191      MisBP:0   MisRate:0.00%    MPKI:0.00
PC:41a92     Total:1      MisBP:0   MisRate:0.00%    MPKI:0.00
PC:180bc     Total:329      MisBP:0   MisRate:0.00%    MPKI:0.00
PC:41a96     Total:1      MisBP:0   MisRate:0.00%    MPKI:0.00
PC:49a48     Total:263      MisBP:0   MisRate:0.00%    MPKI:0.00
PC:49a4c     Total:263      MisBP:0   MisRate:0.00%    MPKI:0.00
PC:49a54     Total:258      MisBP:0   MisRate:0.00%    MPKI:0.00
PC:49a56     Total:258      MisBP:0   MisRate:0.00%    MPKI:0.00
PC:40124     Total:175      MisBP:0   MisRate:0.00%    MPKI:0.00
PC:3f82c     Total:68      MisBP:0   MisRate:0.00%    MPKI:0.00
PC:4011a     Total:96      MisBP:0   MisRate:0.00%    MPKI:0.00
PC:16740     Total:1      MisBP:0   MisRate:0.00%    MPKI:0.00
PC:3f830     Total:68      MisBP:0   MisRate:0.00%    MPKI:0.00
PC:4011e     Total:96      MisBP:0   MisRate:0.00%    MPKI:0.00
PC:16744     Total:1      MisBP:0   MisRate:0.00%    MPKI:0.00
PC:15e58     Total:25170      MisBP:0   MisRate:0.00%    MPKI:0.00
PC:3f832     Total:68      MisBP:0   MisRate:0.00%    MPKI:0.00
PC:16746     Total:1      MisBP:0   MisRate:0.00%    MPKI:0.00
PC:3f836     Total:68      MisBP:0   MisRate:0.00%    MPKI:0.00
PC:934a0     Total:4      MisBP:0   MisRate:0.00%    MPKI:0.00
PC:1674a     Total:1      MisBP:0   MisRate:0.00%    MPKI:0.00
PC:15e60     Total:25135      MisBP:0   MisRate:0.00%    MPKI:0.00
PC:3f83a     Total:68      MisBP:0   MisRate:0.00%    MPKI:0.00
PC:40128     Total:115      MisBP:0   MisRate:0.00%    MPKI:0.00
PC:1674e     Total:1      MisBP:0   MisRate:0.00%    MPKI:0.00
PC:15e62     Total:25134      MisBP:0   MisRate:0.00%    MPKI:0.00
PC:3f83c     Total:63      MisBP:0   MisRate:0.00%    MPKI:0.00
PC:15e64     Total:25131      MisBP:0   MisRate:0.00%    MPKI:0.00
PC:3f83e     Total:63      MisBP:0   MisRate:0.00%    MPKI:0.00
PC:40d9a     Total:301      MisBP:0   MisRate:0.00%    MPKI:0.00
PC:40d80     Total:282      MisBP:0   MisRate:0.00%    MPKI:0.00
PC:40d82     Total:282      MisBP:0   MisRate:0.00%    MPKI:0.00
PC:40d86     Total:282      MisBP:0   MisRate:0.00%    MPKI:0.00
PC:40d88     Total:282      MisBP:0   MisRate:0.00%    MPKI:0.00
PC:40d8a     Total:282      MisBP:0   MisRate:0.00%    MPKI:0.00
PC:40d8c     Total:282      MisBP:0   MisRate:0.00%    MPKI:0.00
PC:40d92     Total:301      MisBP:0   MisRate:0.00%    MPKI:0.00
PC:40d94     Total:301      MisBP:0   MisRate:0.00%    MPKI:0.00
PC:40d96     Total:301      MisBP:0   MisRate:0.00%    MPKI:0.00
PC:40d98     Total:301      MisBP:0   MisRate:0.00%    MPKI:0.00
PC:40d7e     Total:286      MisBP:0   MisRate:0.00%    MPKI:0.00
PC:40d9c     Total:301      MisBP:0   MisRate:0.00%    MPKI:0.00
PC:40d9e     Total:301      MisBP:0   MisRate:0.00%    MPKI:0.00
PC:40da0     Total:300      MisBP:0   MisRate:0.00%    MPKI:0.00
PC:40da2     Total:300      MisBP:0   MisRate:0.00%    MPKI:0.00
PC:40da6     Total:301      MisBP:0   MisRate:0.00%    MPKI:0.00
PC:40da8     Total:301      MisBP:0   MisRate:0.00%    MPKI:0.00
PC:40dac     Total:342      MisBP:0   MisRate:0.00%    MPKI:0.00
PC:40dae     Total:342      MisBP:0   MisRate:0.00%    MPKI:0.00
PC:40db2     Total:342      MisBP:0   MisRate:0.00%    MPKI:0.00
PC:40db6     Total:15      MisBP:0   MisRate:0.00%    MPKI:0.00
PC:40d66     Total:291      MisBP:0   MisRate:0.00%    MPKI:0.00
PC:40d4a     Total:279      MisBP:0   MisRate:0.00%    MPKI:0.00
PC:40d4e     Total:279      MisBP:0   MisRate:0.00%    MPKI:0.00
PC:40d50     Total:298      MisBP:0   MisRate:0.00%    MPKI:0.00
PC:40d52     Total:291      MisBP:0   MisRate:0.00%    MPKI:0.00
PC:40d56     Total:291      MisBP:0   MisRate:0.00%    MPKI:0.00
PC:40d5a     Total:291      MisBP:0   MisRate:0.00%    MPKI:0.00
PC:40d5e     Total:291      MisBP:0   MisRate:0.00%    MPKI:0.00
PC:40d60     Total:291      MisBP:0   MisRate:0.00%    MPKI:0.00
PC:40d62     Total:291      MisBP:0   MisRate:0.00%    MPKI:0.00
PC:40d64     Total:291      MisBP:0   MisRate:0.00%    MPKI:0.00
PC:40db8     Total:15      MisBP:0   MisRate:0.00%    MPKI:0.00
PC:40d68     Total:287      MisBP:0   MisRate:0.00%    MPKI:0.00
PC:40d6a     Total:287      MisBP:0   MisRate:0.00%    MPKI:0.00
PC:40d6c     Total:287      MisBP:0   MisRate:0.00%    MPKI:0.00
PC:40d6e     Total:287      MisBP:0   MisRate:0.00%    MPKI:0.00
PC:40d70     Total:287      MisBP:0   MisRate:0.00%    MPKI:0.00
PC:40d72     Total:287      MisBP:0   MisRate:0.00%    MPKI:0.00
PC:40d76     Total:287      MisBP:0   MisRate:0.00%    MPKI:0.00
PC:40d78     Total:287      MisBP:0   MisRate:0.00%    MPKI:0.00
PC:40d7a     Total:286      MisBP:0   MisRate:0.00%    MPKI:0.00
PC:9ac50     Total:1      MisBP:0   MisRate:0.00%    MPKI:0.00
PC:9ac46     Total:1      MisBP:0   MisRate:0.00%    MPKI:0.00
PC:1f984     Total:6      MisBP:0   MisRate:0.00%    MPKI:0.00
PC:48a70     Total:429      MisBP:0   MisRate:0.00%    MPKI:0.00
PC:47894     Total:17964      MisBP:0   MisRate:0.00%    MPKI:0.00
PC:9ac48     Total:1      MisBP:0   MisRate:0.00%    MPKI:0.00
PC:1f988     Total:6      MisBP:0   MisRate:0.00%    MPKI:0.00
PC:48a74     Total:3429      MisBP:0   MisRate:0.00%    MPKI:0.00
PC:1f98c     Total:6      MisBP:0   MisRate:0.00%    MPKI:0.00
PC:48a78     Total:426      MisBP:0   MisRate:0.00%    MPKI:0.00
PC:4789c     Total:16346      MisBP:0   MisRate:0.00%    MPKI:0.00
PC:47892     Total:17994      MisBP:0   MisRate:0.00%    MPKI:0.00
PC:1f990     Total:6      MisBP:0   MisRate:0.00%    MPKI:0.00
PC:48a7c     Total:426      MisBP:0   MisRate:0.00%    MPKI:0.00
PC:478a0     Total:14812      MisBP:0   MisRate:0.00%    MPKI:0.00
PC:9ac54     Total:1      MisBP:0   MisRate:0.00%    MPKI:0.00
PC:1f992     Total:6      MisBP:0   MisRate:0.00%    MPKI:0.00
PC:9ac56     Total:1      MisBP:0   MisRate:0.00%    MPKI:0.00
PC:1f996     Total:6      MisBP:0   MisRate:0.00%    MPKI:0.00
PC:9ac5a     Total:1      MisBP:0   MisRate:0.00%    MPKI:0.00
PC:15e24     Total:22260      MisBP:0   MisRate:0.00%    MPKI:0.00
PC:3f7fe     Total:63      MisBP:0   MisRate:0.00%    MPKI:0.00
PC:1614a     Total:13888      MisBP:0   MisRate:0.00%    MPKI:0.00
PC:40dba     Total:15      MisBP:0   MisRate:0.00%    MPKI:0.00
PC:40dbc     Total:15      MisBP:0   MisRate:0.00%    MPKI:0.00
PC:40dbe     Total:15      MisBP:0   MisRate:0.00%    MPKI:0.00
PC:40e94     Total:116      MisBP:0   MisRate:0.00%    MPKI:0.00
PC:40ea6     Total:99      MisBP:0   MisRate:0.00%    MPKI:0.00
PC:40e10     Total:265      MisBP:0   MisRate:0.00%    MPKI:0.00
PC:16142     Total:13897      MisBP:0   MisRate:0.00%    MPKI:0.00
PC:3fb1c     Total:193      MisBP:0   MisRate:0.00%    MPKI:0.00
PC:16146     Total:13888      MisBP:0   MisRate:0.00%    MPKI:0.00
PC:3fb20     Total:193      MisBP:0   MisRate:0.00%    MPKI:0.00
PC:31c68     Total:121      MisBP:0   MisRate:0.00%    MPKI:0.00
PC:3fb24     Total:109      MisBP:0   MisRate:0.00%    MPKI:0.00
PC:3fb2e     Total:28      MisBP:0   MisRate:0.00%    MPKI:0.00
PC:3fb3a     Total:28      MisBP:0   MisRate:0.00%    MPKI:0.00
PC:33330     Total:29      MisBP:0   MisRate:0.00%    MPKI:0.00
PC:5cd10     Total:14      MisBP:0   MisRate:0.00%    MPKI:0.00
PC:33336     Total:29      MisBP:0   MisRate:0.00%    MPKI:0.00
PC:1f980     Total:6      MisBP:0   MisRate:0.00%    MPKI:0.00
PC:9ac44     Total:1      MisBP:0   MisRate:0.00%    MPKI:0.00
PC:1f982     Total:6      MisBP:0   MisRate:0.00%    MPKI:0.00
PC:84be2     Total:97755      MisBP:0   MisRate:0.00%    MPKI:0.00
PC:3181c     Total:121      MisBP:0   MisRate:0.00%    MPKI:0.00
PC:3181e     Total:121      MisBP:0   MisRate:0.00%    MPKI:0.00
PC:31820     Total:14      MisBP:0   MisRate:0.00%    MPKI:0.00
PC:31822     Total:14      MisBP:0   MisRate:0.00%    MPKI:0.00
PC:31824     Total:14      MisBP:0   MisRate:0.00%    MPKI:0.00
PC:31826     Total:14      MisBP:0   MisRate:0.00%    MPKI:0.00
PC:31828     Total:14      MisBP:0   MisRate:0.00%    MPKI:0.00
PC:3182a     Total:14      MisBP:0   MisRate:0.00%    MPKI:0.00
PC:84be0     Total:97755      MisBP:0   MisRate:0.00%    MPKI:0.00
PC:3182c     Total:13      MisBP:0   MisRate:0.00%    MPKI:0.00
PC:3181a     Total:121      MisBP:0   MisRate:0.00%    MPKI:0.00
PC:3182e     Total:13      MisBP:0   MisRate:0.00%    MPKI:0.00
PC:1bbce     Total:77      MisBP:0   MisRate:0.00%    MPKI:0.00
PC:1bbd6     Total:77      MisBP:0   MisRate:0.00%    MPKI:0.00
PC:1bbda     Total:115      MisBP:0   MisRate:0.00%    MPKI:0.00
PC:1bbec     Total:38      MisBP:0   MisRate:0.00%    MPKI:0.00
PC:1bbf4     Total:37      MisBP:0   MisRate:0.00%    MPKI:0.00
PC:1bbf8     Total:37      MisBP:0   MisRate:0.00%    MPKI:0.00
PC:1bbfc     Total:37      MisBP:0   MisRate:0.00%    MPKI:0.00
PC:321b2     Total:58      MisBP:0   MisRate:0.00%    MPKI:0.00
PC:321b6     Total:58      MisBP:0   MisRate:0.00%    MPKI:0.00
PC:970b0     Total:25      MisBP:0   MisRate:0.00%    MPKI:0.00
PC:418e8     Total:374      MisBP:0   MisRate:0.00%    MPKI:0.00
PC:17f1e     Total:9019      MisBP:0   MisRate:0.00%    MPKI:0.00
PC:418f8     Total:127      MisBP:0   MisRate:0.00%    MPKI:0.00
PC:19804     Total:46      MisBP:0   MisRate:0.00%    MPKI:0.00
PC:19808     Total:46      MisBP:0   MisRate:0.00%    MPKI:0.00
PC:1980c     Total:46      MisBP:0   MisRate:0.00%    MPKI:0.00
PC:19820     Total:38      MisBP:0   MisRate:0.00%    MPKI:0.00
PC:970f4     Total:1135      MisBP:0   MisRate:0.00%    MPKI:0.00
PC:1be30     Total:45      MisBP:0   MisRate:0.00%    MPKI:0.00
PC:970aa     Total:25      MisBP:0   MisRate:0.00%    MPKI:0.00
PC:321ba     Total:58      MisBP:0   MisRate:0.00%    MPKI:0.00
PC:970b6     Total:25      MisBP:0   MisRate:0.00%    MPKI:0.00
PC:970be     Total:22      MisBP:0   MisRate:0.00%    MPKI:0.00
PC:970c6     Total:15      MisBP:0   MisRate:0.00%    MPKI:0.00
PC:970ca     Total:15      MisBP:0   MisRate:0.00%    MPKI:0.00
PC:970ce     Total:15      MisBP:0   MisRate:0.00%    MPKI:0.00
PC:31810     Total:121      MisBP:0   MisRate:0.00%    MPKI:0.00
PC:31812     Total:121      MisBP:0   MisRate:0.00%    MPKI:0.00
PC:31814     Total:121      MisBP:0   MisRate:0.00%    MPKI:0.00
PC:31816     Total:121      MisBP:0   MisRate:0.00%    MPKI:0.00
PC:31818     Total:121      MisBP:0   MisRate:0.00%    MPKI:0.00
PC:1f6a6     Total:453      MisBP:0   MisRate:0.00%    MPKI:0.00
PC:1f69c     Total:464      MisBP:0   MisRate:0.00%    MPKI:0.00
PC:72a50     Total:89      MisBP:0   MisRate:0.00%    MPKI:0.00
PC:9bb3c     Total:23      MisBP:0   MisRate:0.00%    MPKI:0.00
PC:1f6a0     Total:464      MisBP:0   MisRate:0.00%    MPKI:0.00
PC:72a54     Total:224      MisBP:0   MisRate:0.00%    MPKI:0.00
PC:1f6a2     Total:464      MisBP:0   MisRate:0.00%    MPKI:0.00
PC:9bb42     Total:18      MisBP:0   MisRate:0.00%    MPKI:0.00
PC:1f6a4     Total:464      MisBP:0   MisRate:0.00%    MPKI:0.00
PC:72a58     Total:19      MisBP:0   MisRate:0.00%    MPKI:0.00
PC:9bb44     Total:18      MisBP:0   MisRate:0.00%    MPKI:0.00
PC:9bb3a     Total:23      MisBP:0   MisRate:0.00%    MPKI:0.00
PC:72a5a     Total:19      MisBP:0   MisRate:0.00%    MPKI:0.00
PC:9bb46     Total:18      MisBP:0   MisRate:0.00%    MPKI:0.00
PC:1f6a8     Total:450      MisBP:0   MisRate:0.00%    MPKI:0.00
PC:72a5c     Total:19      MisBP:0   MisRate:0.00%    MPKI:0.00
PC:72a5e     Total:19      MisBP:0   MisRate:0.00%    MPKI:0.00
PC:9bb4a     Total:18      MisBP:0   MisRate:0.00%    MPKI:0.00
PC:1f6ac     Total:451      MisBP:0   MisRate:0.00%    MPKI:0.00
PC:72a60     Total:19      MisBP:0   MisRate:0.00%    MPKI:0.00
PC:9bb4c     Total:18      MisBP:0   MisRate:0.00%    MPKI:0.00
PC:1f6b0     Total:450      MisBP:0   MisRate:0.00%    MPKI:0.00
PC:321d2     Total:1      MisBP:0   MisRate:0.00%    MPKI:0.00
PC:321bc     Total:58      MisBP:0   MisRate:0.00%    MPKI:0.00
PC:321be     Total:2      MisBP:0   MisRate:0.00%    MPKI:0.00
PC:321c0     Total:1      MisBP:0   MisRate:0.00%    MPKI:0.00
PC:321c2     Total:1      MisBP:0   MisRate:0.00%    MPKI:0.00
PC:321c4     Total:1      MisBP:0   MisRate:0.00%    MPKI:0.00
PC:321c6     Total:1      MisBP:0   MisRate:0.00%    MPKI:0.00
PC:321c8     Total:1      MisBP:0   MisRate:0.00%    MPKI:0.00
PC:321ca     Total:1      MisBP:0   MisRate:0.00%    MPKI:0.00
PC:321ce     Total:1      MisBP:0   MisRate:0.00%    MPKI:0.00
PC:321d0     Total:1      MisBP:0   MisRate:0.00%    MPKI:0.00
PC:17f0e     Total:9247      MisBP:0   MisRate:0.00%    MPKI:0.00
PC:321d4     Total:1      MisBP:0   MisRate:0.00%    MPKI:0.00
PC:321d6     Total:1      MisBP:0   MisRate:0.00%    MPKI:0.00
PC:321d8     Total:1      MisBP:0   MisRate:0.00%    MPKI:0.00
PC:321dc     Total:1      MisBP:0   MisRate:0.00%    MPKI:0.00
PC:321de     Total:1      MisBP:0   MisRate:0.00%    MPKI:0.00
PC:321e0     Total:1      MisBP:0   MisRate:0.00%    MPKI:0.00
PC:321e2     Total:1      MisBP:0   MisRate:0.00%    MPKI:0.00
PC:1f69a     Total:464      MisBP:0   MisRate:0.00%    MPKI:0.00
PC:72a4e     Total:89      MisBP:0   MisRate:0.00%    MPKI:0.00
PC:16440     Total:22781      MisBP:0   MisRate:0.00%    MPKI:0.00
PC:2b128     Total:1      MisBP:0   MisRate:0.00%    MPKI:0.00
PC:168b6     Total:36      MisBP:0   MisRate:0.00%    MPKI:0.00
PC:16426     Total:22968      MisBP:0   MisRate:0.00%    MPKI:0.00
PC:3fe00     Total:556      MisBP:0   MisRate:0.00%    MPKI:0.00
PC:1642c     Total:22964      MisBP:0   MisRate:0.00%    MPKI:0.00
PC:3fe06     Total:556      MisBP:0   MisRate:0.00%    MPKI:0.00
PC:16430     Total:22667      MisBP:0   MisRate:0.00%    MPKI:0.00
PC:3fe0a     Total:556      MisBP:0   MisRate:0.00%    MPKI:0.00
PC:1643c     Total:23463      MisBP:0   MisRate:0.00%    MPKI:0.00
PC:3fe16     Total:554      MisBP:0   MisRate:0.00%    MPKI:0.00
PC:3f99e     Total:9      MisBP:0   MisRate:0.00%    MPKI:0.00
PC:3fe1a     Total:554      MisBP:0   MisRate:0.00%    MPKI:0.00
PC:1644e     Total:22983      MisBP:0   MisRate:0.00%    MPKI:0.00
PC:3fe28     Total:550      MisBP:0   MisRate:0.00%    MPKI:0.00
PC:3fe2a     Total:548      MisBP:0   MisRate:0.00%    MPKI:0.00
PC:40718     Total:526      MisBP:0   MisRate:0.00%    MPKI:0.00
PC:16d3e     Total:1124      MisBP:0   MisRate:0.00%    MPKI:0.00
PC:3fe2e     Total:548      MisBP:0   MisRate:0.00%    MPKI:0.00
PC:4071c     Total:473      MisBP:0   MisRate:0.00%    MPKI:0.00
PC:16d42     Total:1124      MisBP:0   MisRate:0.00%    MPKI:0.00
PC:16456     Total:22983      MisBP:0   MisRate:0.00%    MPKI:0.00
PC:40284     Total:15085      MisBP:0   MisRate:0.00%    MPKI:0.00
PC:3251a     Total:125      MisBP:0   MisRate:0.00%    MPKI:0.00
PC:3251c     Total:124      MisBP:0   MisRate:0.00%    MPKI:0.00
PC:32520     Total:146      MisBP:0   MisRate:0.00%    MPKI:0.00
PC:32526     Total:119      MisBP:0   MisRate:0.00%    MPKI:0.00
PC:2f854     Total:107      MisBP:0   MisRate:0.00%    MPKI:0.00
PC:2f858     Total:646      MisBP:0   MisRate:0.00%    MPKI:0.00
PC:4027a     Total:19563      MisBP:0   MisRate:0.00%    MPKI:0.00
PC:168a0     Total:56      MisBP:0   MisRate:0.00%    MPKI:0.00
PC:40280     Total:15085      MisBP:0   MisRate:0.00%    MPKI:0.00
PC:168a6     Total:56      MisBP:0   MisRate:0.00%    MPKI:0.00
PC:3fe30     Total:548      MisBP:0   MisRate:0.00%    MPKI:0.00
PC:168aa     Total:56      MisBP:0   MisRate:0.00%    MPKI:0.00
PC:15fbc     Total:11429      MisBP:0   MisRate:0.00%    MPKI:0.00
PC:3f996     Total:9      MisBP:0   MisRate:0.00%    MPKI:0.00
PC:40288     Total:15080      MisBP:0   MisRate:0.00%    MPKI:0.00
PC:168ae     Total:56      MisBP:0   MisRate:0.00%    MPKI:0.00
PC:15fc0     Total:10170      MisBP:0   MisRate:0.00%    MPKI:0.00
PC:3f99a     Total:9      MisBP:0   MisRate:0.00%    MPKI:0.00
PC:168b2     Total:56      MisBP:0   MisRate:0.00%    MPKI:0.00
PC:15fc4     Total:10166      MisBP:0   MisRate:0.00%    MPKI:0.00
PC:418b2     Total:447      MisBP:0   MisRate:0.00%    MPKI:0.00
PC:17d84     Total:77134      MisBP:0   MisRate:0.00%    MPKI:0.00
PC:4175e     Total:10      MisBP:0   MisRate:0.00%    MPKI:0.00
PC:17d88     Total:615986      MisBP:0   MisRate:0.00%    MPKI:0.00
PC:41762     Total:10      MisBP:0   MisRate:0.00%    MPKI:0.00
PC:17d8c     Total:76089      MisBP:0   MisRate:0.00%    MPKI:0.00
PC:41766     Total:10      MisBP:0   MisRate:0.00%    MPKI:0.00
PC:41768     Total:10      MisBP:0   MisRate:0.00%    MPKI:0.00
PC:1ad7a     Total:338      MisBP:0   MisRate:0.00%    MPKI:0.00
PC:1ad90     Total:127      MisBP:0   MisRate:0.00%    MPKI:0.00
PC:17ed8     Total:19827      MisBP:0   MisRate:0.00%    MPKI:0.00
PC:4175c     Total:10      MisBP:0   MisRate:0.00%    MPKI:0.00
PC:17edc     Total:19827      MisBP:0   MisRate:0.00%    MPKI:0.00
PC:418b6     Total:447      MisBP:0   MisRate:0.00%    MPKI:0.00
PC:418c2     Total:186      MisBP:0   MisRate:0.00%    MPKI:0.00
PC:418c6     Total:186      MisBP:0   MisRate:0.00%    MPKI:0.00
PC:418ce     Total:211      MisBP:0   MisRate:0.00%    MPKI:0.00
PC:418d8     Total:133      MisBP:0   MisRate:0.00%    MPKI:0.00
PC:17f02     Total:10789      MisBP:0   MisRate:0.00%    MPKI:0.00
PC:418dc     Total:131      MisBP:0   MisRate:0.00%    MPKI:0.00
PC:17f0a     Total:9247      MisBP:0   MisRate:0.00%    MPKI:0.00
PC:418e4     Total:748      MisBP:0   MisRate:0.00%    MPKI:0.00
PC:17714     Total:130      MisBP:0   MisRate:0.00%    MPKI:0.00
PC:16d44     Total:1124      MisBP:0   MisRate:0.00%    MPKI:0.00
PC:16458     Total:22649      MisBP:0   MisRate:0.00%    MPKI:0.00
PC:3fe32     Total:548      MisBP:0   MisRate:0.00%    MPKI:0.00
PC:3fe34     Total:543      MisBP:0   MisRate:0.00%    MPKI:0.00
PC:40722     Total:464      MisBP:0   MisRate:0.00%    MPKI:0.00
PC:16d48     Total:1124      MisBP:0   MisRate:0.00%    MPKI:0.00
PC:1b924     Total:890      MisBP:0   MisRate:0.00%    MPKI:0.00
PC:17702     Total:439      MisBP:0   MisRate:0.00%    MPKI:0.00
PC:17706     Total:439      MisBP:0   MisRate:0.00%    MPKI:0.00
PC:1770c     Total:439      MisBP:0   MisRate:0.00%    MPKI:0.00
PC:72a64     Total:6      MisBP:0   MisRate:0.00%    MPKI:0.00
PC:1771c     Total:67      MisBP:0   MisRate:0.00%    MPKI:0.00
PC:41100     Total:30168      MisBP:0   MisRate:0.00%    MPKI:0.00
PC:17726     Total:67      MisBP:0   MisRate:0.00%    MPKI:0.00
PC:4110e     Total:18654      MisBP:0   MisRate:0.00%    MPKI:0.00
PC:17734     Total:47      MisBP:0   MisRate:0.00%    MPKI:0.00
PC:41726     Total:413      MisBP:0   MisRate:0.00%    MPKI:0.00
PC:41730     Total:412      MisBP:0   MisRate:0.00%    MPKI:0.00
PC:41734     Total:412      MisBP:0   MisRate:0.00%    MPKI:0.00
PC:41748     Total:14      MisBP:0   MisRate:0.00%    MPKI:0.00
PC:1b90c     Total:175      MisBP:0   MisRate:0.00%    MPKI:0.00
PC:1ce2a     Total:18      MisBP:0   MisRate:0.00%    MPKI:0.00
PC:1ce30     Total:16      MisBP:0   MisRate:0.00%    MPKI:0.00
PC:1ce3a     Total:16      MisBP:0   MisRate:0.00%    MPKI:0.00
PC:1b8f4     Total:302      MisBP:0   MisRate:0.00%    MPKI:0.00
PC:3016a     Total:5      MisBP:0   MisRate:0.00%    MPKI:0.00
PC:1b8f8     Total:302      MisBP:0   MisRate:0.00%    MPKI:0.00
PC:1b8fc     Total:262      MisBP:0   MisRate:0.00%    MPKI:0.00
PC:1b900     Total:175      MisBP:0   MisRate:0.00%    MPKI:0.00
PC:1b904     Total:175      MisBP:0   MisRate:0.00%    MPKI:0.00
PC:1b908     Total:175      MisBP:0   MisRate:0.00%    MPKI:0.00
PC:1ce00     Total:450      MisBP:0   MisRate:0.00%    MPKI:0.00
PC:1b910     Total:175      MisBP:0   MisRate:0.00%    MPKI:0.00
PC:1b914     Total:175      MisBP:0   MisRate:0.00%    MPKI:0.00
PC:1b918     Total:3      MisBP:0   MisRate:0.00%    MPKI:0.00
PC:373d4     Total:73      MisBP:0   MisRate:0.00%    MPKI:0.00
PC:373e8     Total:72      MisBP:0   MisRate:0.00%    MPKI:0.00
PC:373ec     Total:72      MisBP:0   MisRate:0.00%    MPKI:0.00
PC:9d540     Total:225      MisBP:0   MisRate:0.00%    MPKI:0.00
PC:5fbde     Total:10      MisBP:0   MisRate:0.00%    MPKI:0.00
PC:9d544     Total:450      MisBP:0   MisRate:0.00%    MPKI:0.00
PC:5fbe2     Total:10      MisBP:0   MisRate:0.00%    MPKI:0.00
PC:1670a     Total:2      MisBP:0   MisRate:0.00%    MPKI:0.00
PC:16d50     Total:1124      MisBP:0   MisRate:0.00%    MPKI:0.00
PC:40732     Total:127      MisBP:0   MisRate:0.00%    MPKI:0.00
PC:16d58     Total:1023      MisBP:0   MisRate:0.00%    MPKI:0.00
PC:18b52     Total:7466      MisBP:0   MisRate:0.00%    MPKI:0.00
PC:4252c     Total:22      MisBP:0   MisRate:0.00%    MPKI:0.00
PC:4086e     Total:3982      MisBP:0   MisRate:0.00%    MPKI:0.00
PC:16e98     Total:378      MisBP:0   MisRate:0.00%    MPKI:0.00
PC:40872     Total:882      MisBP:0   MisRate:0.00%    MPKI:0.00
PC:93498     Total:4      MisBP:0   MisRate:0.00%    MPKI:0.00
PC:400e4     Total:197      MisBP:0   MisRate:0.00%    MPKI:0.00
PC:9d548     Total:225      MisBP:0   MisRate:0.00%    MPKI:0.00
PC:934a6     Total:4      MisBP:0   MisRate:0.00%    MPKI:0.00
PC:16718     Total:2      MisBP:0   MisRate:0.00%    MPKI:0.00
PC:3d8bd4     Total:3      MisBP:0   MisRate:0.00%    MPKI:0.00
PC:986cc     Total:7      MisBP:0   MisRate:0.00%    MPKI:0.00
PC:986d2     Total:91      MisBP:0   MisRate:0.00%    MPKI:0.00
PC:1b944     Total:330      MisBP:0   MisRate:0.00%    MPKI:0.00
PC:41144     Total:754      MisBP:0   MisRate:0.00%    MPKI:0.00
PC:41148     Total:754      MisBP:0   MisRate:0.00%    MPKI:0.00
PC:4114c     Total:754      MisBP:0   MisRate:0.00%    MPKI:0.00
PC:5ebb0     Total:44      MisBP:0   MisRate:0.00%    MPKI:0.00
PC:9d5ba     Total:66      MisBP:0   MisRate:0.00%    MPKI:0.00
PC:5eb90     Total:308      MisBP:0   MisRate:0.00%    MPKI:0.00
PC:5eb94     Total:44      MisBP:0   MisRate:0.00%    MPKI:0.00
PC:5eb98     Total:44      MisBP:0   MisRate:0.00%    MPKI:0.00
PC:5eb9c     Total:44      MisBP:0   MisRate:0.00%    MPKI:0.00
PC:5eb9e     Total:44      MisBP:0   MisRate:0.00%    MPKI:0.00
PC:5eba2     Total:44      MisBP:0   MisRate:0.00%    MPKI:0.00
PC:5eba6     Total:44      MisBP:0   MisRate:0.00%    MPKI:0.00
PC:5ebaa     Total:44      MisBP:0   MisRate:0.00%    MPKI:0.00
PC:5ebac     Total:44      MisBP:0   MisRate:0.00%    MPKI:0.00
PC:9d5b6     Total:81      MisBP:0   MisRate:0.00%    MPKI:0.00
PC:5ebb4     Total:44      MisBP:0   MisRate:0.00%    MPKI:0.00
PC:5ebb6     Total:44      MisBP:0   MisRate:0.00%    MPKI:0.00
PC:5ebb8     Total:44      MisBP:0   MisRate:0.00%    MPKI:0.00
PC:5ebbc     Total:44      MisBP:0   MisRate:0.00%    MPKI:0.00
PC:5ebbe     Total:44      MisBP:0   MisRate:0.00%    MPKI:0.00
PC:5ebc0     Total:43      MisBP:0   MisRate:0.00%    MPKI:0.00
PC:5ebc2     Total:43      MisBP:0   MisRate:0.00%    MPKI:0.00
PC:5ebc6     Total:43      MisBP:0   MisRate:0.00%    MPKI:0.00
PC:5ebca     Total:49      MisBP:0   MisRate:0.00%    MPKI:0.00
PC:5ebce     Total:42      MisBP:0   MisRate:0.00%    MPKI:0.00
PC:9d560     Total:211      MisBP:0   MisRate:0.00%    MPKI:0.00
PC:9d54c     Total:225      MisBP:0   MisRate:0.00%    MPKI:0.00
PC:5fbea     Total:8      MisBP:0   MisRate:0.00%    MPKI:0.00
PC:9d550     Total:225      MisBP:0   MisRate:0.00%    MPKI:0.00
PC:604dc     Total:25      MisBP:0   MisRate:0.00%    MPKI:0.00
PC:36b02     Total:393      MisBP:0   MisRate:0.00%    MPKI:0.00
PC:5fbee     Total:47      MisBP:0   MisRate:0.00%    MPKI:0.00
PC:9d554     Total:225      MisBP:0   MisRate:0.00%    MPKI:0.00
PC:604e0     Total:25      MisBP:0   MisRate:0.00%    MPKI:0.00
PC:36b06     Total:393      MisBP:0   MisRate:0.00%    MPKI:0.00
PC:9d55c     Total:211      MisBP:0   MisRate:0.00%    MPKI:0.00
PC:7caae     Total:32      MisBP:0   MisRate:0.00%    MPKI:0.00
PC:9d564     Total:211      MisBP:0   MisRate:0.00%    MPKI:0.00
PC:9d56c     Total:211      MisBP:0   MisRate:0.00%    MPKI:0.00
PC:9d578     Total:211      MisBP:0   MisRate:0.00%    MPKI:0.00
PC:5fc16     Total:3      MisBP:0   MisRate:0.00%    MPKI:0.00
PC:9d582     Total:97      MisBP:0   MisRate:0.00%    MPKI:0.00
PC:9d586     Total:97      MisBP:0   MisRate:0.00%    MPKI:0.00
PC:9d59c     Total:81      MisBP:0   MisRate:0.00%    MPKI:0.00
PC:9d5a4     Total:81      MisBP:0   MisRate:0.00%    MPKI:0.00
PC:9d5b0     Total:81      MisBP:0   MisRate:0.00%    MPKI:0.00
PC:7c850     Total:1934      MisBP:0   MisRate:0.00%    MPKI:0.00
PC:32502     Total:34      MisBP:0   MisRate:0.00%    MPKI:0.00
PC:32504     Total:34      MisBP:0   MisRate:0.00%    MPKI:0.00
PC:32508     Total:63      MisBP:0   MisRate:0.00%    MPKI:0.00
PC:3250c     Total:58      MisBP:0   MisRate:0.00%    MPKI:0.00
PC:3250e     Total:58      MisBP:0   MisRate:0.00%    MPKI:0.00
PC:32512     Total:58      MisBP:0   MisRate:0.00%    MPKI:0.00
PC:32516     Total:58      MisBP:0   MisRate:0.00%    MPKI:0.00
PC:32518     Total:58      MisBP:0   MisRate:0.00%    MPKI:0.00
PC:33ba0     Total:227      MisBP:0   MisRate:0.00%    MPKI:0.00
PC:33ba4     Total:227      MisBP:0   MisRate:0.00%    MPKI:0.00
PC:36bb0     Total:386      MisBP:0   MisRate:0.00%    MPKI:0.00
PC:15514     Total:130459      MisBP:0   MisRate:0.00%    MPKI:0.00
PC:3eeee     Total:67      MisBP:0   MisRate:0.00%    MPKI:0.00
PC:7c854     Total:1934      MisBP:0   MisRate:0.00%    MPKI:0.00
PC:3eef2     Total:1040      MisBP:0   MisRate:0.00%    MPKI:0.00
PC:7c85a     Total:1934      MisBP:0   MisRate:0.00%    MPKI:0.00
PC:1551e     Total:127121      MisBP:0   MisRate:0.00%    MPKI:0.00
PC:7c85e     Total:5802      MisBP:0   MisRate:0.00%    MPKI:0.00
PC:15522     Total:127087      MisBP:0   MisRate:0.00%    MPKI:0.00
PC:3eefc     Total:575      MisBP:0   MisRate:0.00%    MPKI:0.00
PC:7c864     Total:1933      MisBP:0   MisRate:0.00%    MPKI:0.00
PC:72a6c     Total:24      MisBP:0   MisRate:0.00%    MPKI:0.00
PC:9bb50     Total:18      MisBP:0   MisRate:0.00%    MPKI:0.00
PC:1f6b2     Total:450      MisBP:0   MisRate:0.00%    MPKI:0.00
PC:72a66     Total:6      MisBP:0   MisRate:0.00%    MPKI:0.00
PC:9bb52     Total:18      MisBP:0   MisRate:0.00%    MPKI:0.00
PC:1f6b4     Total:450      MisBP:0   MisRate:0.00%    MPKI:0.00
PC:72a68     Total:6      MisBP:0   MisRate:0.00%    MPKI:0.00
PC:9bb54     Total:18      MisBP:0   MisRate:0.00%    MPKI:0.00
PC:1f6b6     Total:450      MisBP:0   MisRate:0.00%    MPKI:0.00
PC:72a6a     Total:6      MisBP:0   MisRate:0.00%    MPKI:0.00
PC:9bb56     Total:18      MisBP:0   MisRate:0.00%    MPKI:0.00
PC:3ef02     Total:42      MisBP:0   MisRate:0.00%    MPKI:0.00
PC:9bb58     Total:18      MisBP:0   MisRate:0.00%    MPKI:0.00
PC:36b9e     Total:187      MisBP:0   MisRate:0.00%    MPKI:0.00
PC:9d5ec     Total:8      MisBP:0   MisRate:0.00%    MPKI:0.00
PC:36ba0     Total:187      MisBP:0   MisRate:0.00%    MPKI:0.00
PC:36ba4     Total:187      MisBP:0   MisRate:0.00%    MPKI:0.00
PC:36ba8     Total:386      MisBP:0   MisRate:0.00%    MPKI:0.00
PC:36baa     Total:386      MisBP:0   MisRate:0.00%    MPKI:0.00
PC:36bac     Total:386      MisBP:0   MisRate:0.00%    MPKI:0.00
PC:36bae     Total:386      MisBP:0   MisRate:0.00%    MPKI:0.00
PC:7bbce     Total:280      MisBP:0   MisRate:0.00%    MPKI:0.00
PC:7bbba     Total:838      MisBP:0   MisRate:0.00%    MPKI:0.00
PC:28808     Total:1003      MisBP:0   MisRate:0.00%    MPKI:0.00
PC:521e2     Total:7      MisBP:0   MisRate:0.00%    MPKI:0.00
PC:7bbbc     Total:838      MisBP:0   MisRate:0.00%    MPKI:0.00
PC:2880c     Total:1003      MisBP:0   MisRate:0.00%    MPKI:0.00
PC:521e6     Total:7      MisBP:0   MisRate:0.00%    MPKI:0.00
PC:7bbc0     Total:739      MisBP:0   MisRate:0.00%    MPKI:0.00
PC:521e8     Total:7      MisBP:0   MisRate:0.00%    MPKI:0.00
PC:7bbc2     Total:739      MisBP:0   MisRate:0.00%    MPKI:0.00
PC:28814     Total:1002      MisBP:0   MisRate:0.00%    MPKI:0.00
PC:7bbb6     Total:838      MisBP:0   MisRate:0.00%    MPKI:0.00
PC:7ca74     Total:48      MisBP:0   MisRate:0.00%    MPKI:0.00
PC:3f112     Total:13      MisBP:0   MisRate:0.00%    MPKI:0.00
PC:7ca78     Total:48      MisBP:0   MisRate:0.00%    MPKI:0.00
PC:3f116     Total:6      MisBP:0   MisRate:0.00%    MPKI:0.00
PC:7ca86     Total:21      MisBP:0   MisRate:0.00%    MPKI:0.00
PC:1574a     Total:87714      MisBP:0   MisRate:0.00%    MPKI:0.00
PC:3f124     Total:3      MisBP:0   MisRate:0.00%    MPKI:0.00
PC:7ca8e     Total:21      MisBP:0   MisRate:0.00%    MPKI:0.00
PC:15752     Total:87701      MisBP:0   MisRate:0.00%    MPKI:0.00
PC:3f12c     Total:14      MisBP:0   MisRate:0.00%    MPKI:0.00
PC:521cc     Total:2      MisBP:0   MisRate:0.00%    MPKI:0.00
PC:7c868     Total:1933      MisBP:0   MisRate:0.00%    MPKI:0.00
PC:15532     Total:123509      MisBP:0   MisRate:0.00%    MPKI:0.00
PC:3ef0c     Total:42      MisBP:0   MisRate:0.00%    MPKI:0.00
PC:7c874     Total:61      MisBP:0   MisRate:0.00%    MPKI:0.00
PC:3ef12     Total:42      MisBP:0   MisRate:0.00%    MPKI:0.00
PC:7c880     Total:61      MisBP:0   MisRate:0.00%    MPKI:0.00
PC:3ef1e     Total:167      MisBP:0   MisRate:0.00%    MPKI:0.00
PC:7bba0     Total:4215      MisBP:0   MisRate:0.00%    MPKI:0.00
PC:7bba2     Total:843      MisBP:0   MisRate:0.00%    MPKI:0.00
PC:287f2     Total:1074      MisBP:0   MisRate:0.00%    MPKI:0.00
PC:42ca6     Total:1      MisBP:0   MisRate:0.00%    MPKI:0.00
PC:7bba6     Total:843      MisBP:0   MisRate:0.00%    MPKI:0.00
PC:521d0     Total:2      MisBP:0   MisRate:0.00%    MPKI:0.00
PC:7bbaa     Total:843      MisBP:0   MisRate:0.00%    MPKI:0.00
PC:521d4     Total:2      MisBP:0   MisRate:0.00%    MPKI:0.00
PC:7bbae     Total:838      MisBP:0   MisRate:0.00%    MPKI:0.00
PC:287fc     Total:1072      MisBP:0   MisRate:0.00%    MPKI:0.00
PC:7bbb0     Total:838      MisBP:0   MisRate:0.00%    MPKI:0.00
PC:521d8     Total:2      MisBP:0   MisRate:0.00%    MPKI:0.00
PC:7bbb2     Total:838      MisBP:0   MisRate:0.00%    MPKI:0.00
PC:3d8c28     Total:1      MisBP:0   MisRate:0.00%    MPKI:0.00
PC:1b98c     Total:994      MisBP:0   MisRate:0.00%    MPKI:0.00
PC:9871a     Total:16      MisBP:0   MisRate:0.00%    MPKI:0.00
PC:31cce     Total:424      MisBP:0   MisRate:0.00%    MPKI:0.00
PC:3d8c24     Total:1      MisBP:0   MisRate:0.00%    MPKI:0.00
PC:85084     Total:1448      MisBP:0   MisRate:0.00%    MPKI:0.00
PC:31cd0     Total:424      MisBP:0   MisRate:0.00%    MPKI:0.00
PC:1b990     Total:681      MisBP:0   MisRate:0.00%    MPKI:0.00
PC:9871e     Total:32      MisBP:0   MisRate:0.00%    MPKI:0.00
PC:85086     Total:1448      MisBP:0   MisRate:0.00%    MPKI:0.00
PC:31cd2     Total:424      MisBP:0   MisRate:0.00%    MPKI:0.00
PC:31ccc     Total:424      MisBP:0   MisRate:0.00%    MPKI:0.00
PC:31cd4     Total:417      MisBP:0   MisRate:0.00%    MPKI:0.00
PC:98722     Total:31      MisBP:0   MisRate:0.00%    MPKI:0.00
PC:8508a     Total:1448      MisBP:0   MisRate:0.00%    MPKI:0.00
PC:31cd6     Total:417      MisBP:0   MisRate:0.00%    MPKI:0.00
PC:8508c     Total:1448      MisBP:0   MisRate:0.00%    MPKI:0.00
PC:31cd8     Total:417      MisBP:0   MisRate:0.00%    MPKI:0.00
PC:1b998     Total:52453      MisBP:0   MisRate:0.00%    MPKI:0.00
PC:31cda     Total:416      MisBP:0   MisRate:0.00%    MPKI:0.00
PC:3d8c30     Total:1      MisBP:0   MisRate:0.00%    MPKI:0.00
PC:1b99a     Total:52452      MisBP:0   MisRate:0.00%    MPKI:0.00
PC:98706     Total:7      MisBP:0   MisRate:0.00%    MPKI:0.00
PC:31cac     Total:125      MisBP:0   MisRate:0.00%    MPKI:0.00
PC:1b96c     Total:56800      MisBP:0   MisRate:0.00%    MPKI:0.00
PC:986fa     Total:10      MisBP:0   MisRate:0.00%    MPKI:0.00
PC:31cae     Total:125      MisBP:0   MisRate:0.00%    MPKI:0.00
PC:85064     Total:1474      MisBP:0   MisRate:0.00%    MPKI:0.00
PC:31cb0     Total:124      MisBP:0   MisRate:0.00%    MPKI:0.00
PC:986fe     Total:7      MisBP:0   MisRate:0.00%    MPKI:0.00
PC:31cb4     Total:124      MisBP:0   MisRate:0.00%    MPKI:0.00
PC:98702     Total:7      MisBP:0   MisRate:0.00%    MPKI:0.00
PC:8506c     Total:1474      MisBP:0   MisRate:0.00%    MPKI:0.00
PC:98728     Total:26      MisBP:0   MisRate:0.00%    MPKI:0.00
PC:31cba     Total:302      MisBP:0   MisRate:0.00%    MPKI:0.00
PC:3d8c10     Total:1      MisBP:0   MisRate:0.00%    MPKI:0.00
PC:1b97a     Total:1065      MisBP:0   MisRate:0.00%    MPKI:0.00
PC:85070     Total:1473      MisBP:0   MisRate:0.00%    MPKI:0.00
PC:31cbc     Total:302      MisBP:0   MisRate:0.00%    MPKI:0.00
PC:9870a     Total:16      MisBP:0   MisRate:0.00%    MPKI:0.00
PC:31cbe     Total:302      MisBP:0   MisRate:0.00%    MPKI:0.00
PC:31cca     Total:424      MisBP:0   MisRate:0.00%    MPKI:0.00
PC:85080     Total:1448      MisBP:0   MisRate:0.00%    MPKI:0.00
PC:32532     Total:51      MisBP:0   MisRate:0.00%    MPKI:0.00
PC:274a4     Total:3      MisBP:0   MisRate:0.00%    MPKI:0.00
PC:7a858     Total:1      MisBP:0   MisRate:0.00%    MPKI:0.00
PC:3cefa     Total:252      MisBP:0   MisRate:0.00%    MPKI:0.00
PC:274a8     Total:768      MisBP:0   MisRate:0.00%    MPKI:0.00
PC:7a85c     Total:1      MisBP:0   MisRate:0.00%    MPKI:0.00
PC:274b2     Total:383      MisBP:0   MisRate:0.00%    MPKI:0.00
PC:7a866     Total:1      MisBP:0   MisRate:0.00%    MPKI:0.00
PC:32528     Total:161      MisBP:0   MisRate:0.00%    MPKI:0.00
PC:3252a     Total:161      MisBP:0   MisRate:0.00%    MPKI:0.00
PC:3252e     Total:51      MisBP:0   MisRate:0.00%    MPKI:0.00
PC:3cef6     Total:297      MisBP:0   MisRate:0.00%    MPKI:0.00
PC:47f80     Total:496      MisBP:0   MisRate:0.00%    MPKI:0.00
PC:47f82     Total:496      MisBP:0   MisRate:0.00%    MPKI:0.00
PC:3370c     Total:145      MisBP:0   MisRate:0.00%    MPKI:0.00
PC:47f84     Total:496      MisBP:0   MisRate:0.00%    MPKI:0.00
PC:47f88     Total:602      MisBP:0   MisRate:0.00%    MPKI:0.00
PC:47f8a     Total:436      MisBP:0   MisRate:0.00%    MPKI:0.00
PC:33714     Total:145      MisBP:0   MisRate:0.00%    MPKI:0.00
PC:47f8c     Total:436      MisBP:0   MisRate:0.00%    MPKI:0.00
PC:33716     Total:136      MisBP:0   MisRate:0.00%    MPKI:0.00
PC:47f8e     Total:436      MisBP:0   MisRate:0.00%    MPKI:0.00
PC:98730     Total:26      MisBP:0   MisRate:0.00%    MPKI:0.00
PC:85090     Total:1447      MisBP:0   MisRate:0.00%    MPKI:0.00
PC:31cdc     Total:416      MisBP:0   MisRate:0.00%    MPKI:0.00
PC:9872a     Total:26      MisBP:0   MisRate:0.00%    MPKI:0.00
PC:85094     Total:1447      MisBP:0   MisRate:0.00%    MPKI:0.00
PC:31ce0     Total:254      MisBP:0   MisRate:0.00%    MPKI:0.00
PC:9872e     Total:26      MisBP:0   MisRate:0.00%    MPKI:0.00
PC:85096     Total:1447      MisBP:0   MisRate:0.00%    MPKI:0.00
PC:31ce2     Total:254      MisBP:0   MisRate:0.00%    MPKI:0.00
PC:3d8c38     Total:1      MisBP:0   MisRate:0.00%    MPKI:0.00
PC:1b9a2     Total:3841      MisBP:0   MisRate:0.00%    MPKI:0.00
PC:85060     Total:1474      MisBP:0   MisRate:0.00%    MPKI:0.00
PC:8509a     Total:1442      MisBP:0   MisRate:0.00%    MPKI:0.00
PC:31ce6     Total:254      MisBP:0   MisRate:0.00%    MPKI:0.00
PC:3d8c3c     Total:1      MisBP:0   MisRate:0.00%    MPKI:0.00
PC:1b9a6     Total:3836      MisBP:0   MisRate:0.00%    MPKI:0.00
PC:98734     Total:24      MisBP:0   MisRate:0.00%    MPKI:0.00
PC:8509c     Total:1442      MisBP:0   MisRate:0.00%    MPKI:0.00
PC:31ce8     Total:237      MisBP:0   MisRate:0.00%    MPKI:0.00
PC:1b91e     Total:943      MisBP:0   MisRate:0.00%    MPKI:0.00
PC:3d8bb4     Total:12      MisBP:0   MisRate:0.00%    MPKI:0.00
PC:31c82     Total:71      MisBP:0   MisRate:0.00%    MPKI:0.00
PC:31c7e     Total:215      MisBP:0   MisRate:0.00%    MPKI:0.00
PC:31dba     Total:135      MisBP:0   MisRate:0.00%    MPKI:0.00
PC:30cd0     Total:159      MisBP:0   MisRate:0.00%    MPKI:0.00
PC:30cd4     Total:159      MisBP:0   MisRate:0.00%    MPKI:0.00
PC:30ce4     Total:158      MisBP:0   MisRate:0.00%    MPKI:0.00
PC:30cea     Total:153      MisBP:0   MisRate:0.00%    MPKI:0.00
PC:30cee     Total:153      MisBP:0   MisRate:0.00%    MPKI:0.00
PC:30d02     Total:72      MisBP:0   MisRate:0.00%    MPKI:0.00
PC:85034     Total:1530      MisBP:0   MisRate:0.00%    MPKI:0.00
PC:85036     Total:1530      MisBP:0   MisRate:0.00%    MPKI:0.00
PC:986c8     Total:7      MisBP:0   MisRate:0.00%    MPKI:0.00
PC:3d8bd8     Total:4      MisBP:0   MisRate:0.00%    MPKI:0.00
PC:1b942     Total:330      MisBP:0   MisRate:0.00%    MPKI:0.00
PC:986d0     Total:13      MisBP:0   MisRate:0.00%    MPKI:0.00
PC:31c84     Total:71      MisBP:0   MisRate:0.00%    MPKI:0.00
PC:8503a     Total:1526      MisBP:0   MisRate:0.00%    MPKI:0.00
PC:31c86     Total:71      MisBP:0   MisRate:0.00%    MPKI:0.00
PC:8503c     Total:1526      MisBP:0   MisRate:0.00%    MPKI:0.00
PC:31c88     Total:71      MisBP:0   MisRate:0.00%    MPKI:0.00
PC:1b948     Total:573744      MisBP:0   MisRate:0.00%    MPKI:0.00
PC:986d6     Total:6      MisBP:0   MisRate:0.00%    MPKI:0.00
PC:986be     Total:7      MisBP:0   MisRate:0.00%    MPKI:0.00
PC:31c6a     Total:121      MisBP:0   MisRate:0.00%    MPKI:0.00
PC:3d8bc0     Total:2      MisBP:0   MisRate:0.00%    MPKI:0.00
PC:1b92a     Total:2323      MisBP:0   MisRate:0.00%    MPKI:0.00
PC:986b8     Total:12      MisBP:0   MisRate:0.00%    MPKI:0.00
PC:85020     Total:1555      MisBP:0   MisRate:0.00%    MPKI:0.00
PC:31c6c     Total:121      MisBP:0   MisRate:0.00%    MPKI:0.00
PC:1b92c     Total:2323      MisBP:0   MisRate:0.00%    MPKI:0.00
PC:986ba     Total:12      MisBP:0   MisRate:0.00%    MPKI:0.00
PC:85024     Total:1555      MisBP:0   MisRate:0.00%    MPKI:0.00
PC:31c70     Total:160      MisBP:0   MisRate:0.00%    MPKI:0.00
PC:31c8a     Total:192      MisBP:0   MisRate:0.00%    MPKI:0.00
PC:85026     Total:1553      MisBP:0   MisRate:0.00%    MPKI:0.00
PC:8502a     Total:1542      MisBP:0   MisRate:0.00%    MPKI:0.00
PC:31c76     Total:215      MisBP:0   MisRate:0.00%    MPKI:0.00
PC:3d8bcc     Total:2      MisBP:0   MisRate:0.00%    MPKI:0.00
PC:1b936     Total:376      MisBP:0   MisRate:0.00%    MPKI:0.00
PC:986c4     Total:7      MisBP:0   MisRate:0.00%    MPKI:0.00
PC:31c7a     Total:215      MisBP:0   MisRate:0.00%    MPKI:0.00
PC:3d8bd0     Total:4      MisBP:0   MisRate:0.00%    MPKI:0.00
PC:1b93a     Total:376      MisBP:0   MisRate:0.00%    MPKI:0.00
PC:1b964     Total:56810      MisBP:0   MisRate:0.00%    MPKI:0.00
PC:1b95e     Total:56142      MisBP:0   MisRate:0.00%    MPKI:0.00
PC:986ec     Total:10      MisBP:0   MisRate:0.00%    MPKI:0.00
PC:85054     Total:1492      MisBP:0   MisRate:0.00%    MPKI:0.00
PC:31ca0     Total:190      MisBP:0   MisRate:0.00%    MPKI:0.00
PC:986ee     Total:10      MisBP:0   MisRate:0.00%    MPKI:0.00
PC:85056     Total:1492      MisBP:0   MisRate:0.00%    MPKI:0.00
PC:3d8bf8     Total:5      MisBP:0   MisRate:0.00%    MPKI:0.00
PC:1b962     Total:56142      MisBP:0   MisRate:0.00%    MPKI:0.00
PC:986f0     Total:10      MisBP:0   MisRate:0.00%    MPKI:0.00
PC:31ca4     Total:169      MisBP:0   MisRate:0.00%    MPKI:0.00
PC:3d8bf4     Total:5      MisBP:0   MisRate:0.00%    MPKI:0.00
PC:986f2     Total:10      MisBP:0   MisRate:0.00%    MPKI:0.00
PC:8505a     Total:1474      MisBP:0   MisRate:0.00%    MPKI:0.00
PC:31ca6     Total:168      MisBP:0   MisRate:0.00%    MPKI:0.00
PC:3d8bfc     Total:5      MisBP:0   MisRate:0.00%    MPKI:0.00
PC:1b966     Total:56802      MisBP:0   MisRate:0.00%    MPKI:0.00
PC:986f4     Total:10      MisBP:0   MisRate:0.00%    MPKI:0.00
PC:8505c     Total:1474      MisBP:0   MisRate:0.00%    MPKI:0.00
PC:1b968     Total:56802      MisBP:0   MisRate:0.00%    MPKI:0.00
PC:986f6     Total:10      MisBP:0   MisRate:0.00%    MPKI:0.00
PC:31caa     Total:125      MisBP:0   MisRate:0.00%    MPKI:0.00
PC:986e2     Total:6      MisBP:0   MisRate:0.00%    MPKI:0.00
PC:85040     Total:1493      MisBP:0   MisRate:0.00%    MPKI:0.00
PC:31c8c     Total:192      MisBP:0   MisRate:0.00%    MPKI:0.00
PC:1b94c     Total:56544      MisBP:0   MisRate:0.00%    MPKI:0.00
PC:986da     Total:6      MisBP:0   MisRate:0.00%    MPKI:0.00
PC:31c8e     Total:192      MisBP:0   MisRate:0.00%    MPKI:0.00
PC:3d8be4     Total:4      MisBP:0   MisRate:0.00%    MPKI:0.00
PC:986dc     Total:6      MisBP:0   MisRate:0.00%    MPKI:0.00
PC:85044     Total:1493      MisBP:0   MisRate:0.00%    MPKI:0.00
PC:31c90     Total:191      MisBP:0   MisRate:0.00%    MPKI:0.00
PC:31c94     Total:191      MisBP:0   MisRate:0.00%    MPKI:0.00
PC:47f90     Total:436      MisBP:0   MisRate:0.00%    MPKI:0.00
PC:8504c     Total:1492      MisBP:0   MisRate:0.00%    MPKI:0.00
PC:31c98     Total:191      MisBP:0   MisRate:0.00%    MPKI:0.00
PC:1b958     Total:56522      MisBP:0   MisRate:0.00%    MPKI:0.00
PC:986e6     Total:6      MisBP:0   MisRate:0.00%    MPKI:0.00
PC:31c9a     Total:191      MisBP:0   MisRate:0.00%    MPKI:0.00
PC:3d8bf0     Total:6      MisBP:0   MisRate:0.00%    MPKI:0.00
PC:1b95a     Total:57223      MisBP:0   MisRate:0.00%    MPKI:0.00
PC:986e8     Total:6      MisBP:0   MisRate:0.00%    MPKI:0.00
PC:31c9e     Total:191      MisBP:0   MisRate:0.00%    MPKI:0.00
PC:1bd02     Total:232      MisBP:0   MisRate:0.00%    MPKI:0.00
PC:1bd48     Total:398      MisBP:0   MisRate:0.00%    MPKI:0.00
[...]
PC:15e30     Total:22054      MisBP:5482   MisRate:24.86%    MPKI:0.02
PC:15e66     Total:25131      MisBP:5489   MisRate:21.84%    MPKI:0.02
PC:190ce     Total:40943      MisBP:5567   MisRate:13.60%    MPKI:0.02
PC:19a5e     Total:33148      MisBP:5570   MisRate:16.80%    MPKI:0.02
PC:162e0     Total:28046      MisBP:5577   MisRate:19.89%    MPKI:0.02
PC:187b4     Total:252602      MisBP:5674   MisRate:2.25%    MPKI:0.02
PC:3f49c     Total:34246      MisBP:5696   MisRate:16.63%    MPKI:0.02
PC:15fb6     Total:23588      MisBP:5698   MisRate:24.16%    MPKI:0.02
PC:19328     Total:74380      MisBP:5729   MisRate:7.70%    MPKI:0.02
PC:1ac4c     Total:84908      MisBP:5821   MisRate:6.86%    MPKI:0.02
PC:1c15c     Total:52206      MisBP:5843   MisRate:11.19%    MPKI:0.02
PC:47b0c     Total:29459      MisBP:5868   MisRate:19.92%    MPKI:0.02
PC:158ca     Total:51625      MisBP:5875   MisRate:11.38%    MPKI:0.02
PC:1596a     Total:105150      MisBP:5912   MisRate:5.62%    MPKI:0.02
PC:2ccd0     Total:125470      MisBP:5949   MisRate:4.74%    MPKI:0.02
PC:1c0b6     Total:38856      MisBP:5950   MisRate:15.31%    MPKI:0.02
PC:1acc2     Total:40868      MisBP:5952   MisRate:14.56%    MPKI:0.02
PC:3c64a     Total:32595      MisBP:5967   MisRate:18.31%    MPKI:0.02
PC:2886a     Total:161644      MisBP:5998   MisRate:3.71%    MPKI:0.02
PC:15942     Total:59138      MisBP:6043   MisRate:10.22%    MPKI:0.02
PC:1adcc     Total:56719      MisBP:6124   MisRate:10.80%    MPKI:0.02
PC:192ea     Total:62947      MisBP:6184   MisRate:9.82%    MPKI:0.02
PC:164c6     Total:33889      MisBP:6262   MisRate:18.48%    MPKI:0.02
PC:1608e     Total:18955      MisBP:6274   MisRate:33.10%    MPKI:0.02
PC:3198a     Total:208149      MisBP:6309   MisRate:3.03%    MPKI:0.02
PC:154b2     Total:151513      MisBP:6323   MisRate:4.17%    MPKI:0.02
PC:17eb8     Total:31298      MisBP:6356   MisRate:20.31%    MPKI:0.02
PC:3c5cc     Total:35325      MisBP:6361   MisRate:18.01%    MPKI:0.02
PC:192f6     Total:64994      MisBP:6366   MisRate:9.79%    MPKI:0.02
PC:2cdc2     Total:155927      MisBP:6379   MisRate:4.09%    MPKI:0.02
PC:2e26c     Total:109271      MisBP:6397   MisRate:5.85%    MPKI:0.02
PC:1c04a     Total:76296      MisBP:6404   MisRate:8.39%    MPKI:0.02
PC:2fd46     Total:88699      MisBP:6431   MisRate:7.25%    MPKI:0.02
PC:1c200     Total:48646      MisBP:6464   MisRate:13.29%    MPKI:0.02
PC:31ba6     Total:155883      MisBP:6620   MisRate:4.25%    MPKI:0.02
PC:156fa     Total:70963      MisBP:6707   MisRate:9.45%    MPKI:0.02
PC:2d6b2     Total:169159      MisBP:6712   MisRate:3.97%    MPKI:0.02
PC:18df0     Total:45903      MisBP:6776   MisRate:14.76%    MPKI:0.02
PC:16138     Total:30962      MisBP:6780   MisRate:21.90%    MPKI:0.02
PC:19332     Total:72717      MisBP:6791   MisRate:9.34%    MPKI:0.02
PC:3ec4e     Total:16617      MisBP:6809   MisRate:40.98%    MPKI:0.02
PC:18f26     Total:47753      MisBP:6841   MisRate:14.33%    MPKI:0.02
PC:17eae     Total:40153      MisBP:6916   MisRate:17.22%    MPKI:0.02
PC:3ce46     Total:33721      MisBP:6966   MisRate:20.66%    MPKI:0.02
PC:2ca44     Total:161780      MisBP:6969   MisRate:4.31%    MPKI:0.02
PC:16198     Total:27633      MisBP:6974   MisRate:25.24%    MPKI:0.02
PC:15972     Total:98782      MisBP:6988   MisRate:7.07%    MPKI:0.02
PC:2e504     Total:35696      MisBP:7015   MisRate:19.65%    MPKI:0.02
PC:159ce     Total:101812      MisBP:7029   MisRate:6.90%    MPKI:0.02
PC:1931c     Total:72393      MisBP:7073   MisRate:9.77%    MPKI:0.02
PC:18a14     Total:38156      MisBP:7111   MisRate:18.64%    MPKI:0.02
PC:1accc     Total:41818      MisBP:7136   MisRate:17.06%    MPKI:0.02
PC:3ec3c     Total:52104      MisBP:7201   MisRate:13.82%    MPKI:0.02
PC:2d636     Total:66509      MisBP:7206   MisRate:10.83%    MPKI:0.02
PC:3ce00     Total:26097      MisBP:7244   MisRate:27.76%    MPKI:0.02
PC:19018     Total:57499      MisBP:7266   MisRate:12.64%    MPKI:0.02
PC:197f4     Total:35445      MisBP:7270   MisRate:20.51%    MPKI:0.02
PC:1c796     Total:159416      MisBP:7297   MisRate:4.58%    MPKI:0.02
PC:2d878     Total:81378      MisBP:7386   MisRate:9.08%    MPKI:0.02
PC:3f4d2     Total:25405      MisBP:7464   MisRate:29.38%    MPKI:0.02
PC:2e3f0     Total:29852      MisBP:7507   MisRate:25.15%    MPKI:0.02
PC:15b50     Total:40111      MisBP:7516   MisRate:18.74%    MPKI:0.02
PC:2cd7e     Total:143141      MisBP:7572   MisRate:5.29%    MPKI:0.02
PC:31b32     Total:141446      MisBP:7594   MisRate:5.37%    MPKI:0.02
PC:3f4cc     Total:33040      MisBP:7594   MisRate:22.98%    MPKI:0.02
PC:2d294     Total:261834      MisBP:7629   MisRate:2.91%    MPKI:0.02
PC:3f4a2     Total:30409      MisBP:7635   MisRate:25.11%    MPKI:0.02
PC:2d3f2     Total:144875      MisBP:7715   MisRate:5.33%    MPKI:0.02
PC:1acf6     Total:29749      MisBP:7721   MisRate:25.95%    MPKI:0.02
PC:190a6     Total:44818      MisBP:7728   MisRate:17.24%    MPKI:0.02
PC:3cfa6     Total:117802      MisBP:7812   MisRate:6.63%    MPKI:0.03
PC:2cd8e     Total:152921      MisBP:7836   MisRate:5.12%    MPKI:0.03
PC:3c298     Total:43421      MisBP:7908   MisRate:18.21%    MPKI:0.03
PC:410ee     Total:23984      MisBP:7917   MisRate:33.01%    MPKI:0.03
PC:3c692     Total:49624      MisBP:8018   MisRate:16.16%    MPKI:0.03
PC:2d588     Total:82155      MisBP:8064   MisRate:9.82%    MPKI:0.03
PC:30456     Total:53222      MisBP:8065   MisRate:15.15%    MPKI:0.03
PC:1882e     Total:121713      MisBP:8107   MisRate:6.66%    MPKI:0.03
PC:15e94     Total:26554      MisBP:8112   MisRate:30.55%    MPKI:0.03
PC:199dc     Total:65238      MisBP:8120   MisRate:12.45%    MPKI:0.03
PC:3c7bc     Total:52419      MisBP:8187   MisRate:15.62%    MPKI:0.03
PC:164b4     Total:34119      MisBP:8212   MisRate:24.07%    MPKI:0.03
PC:1aca4     Total:71071      MisBP:8226   MisRate:11.57%    MPKI:0.03
PC:18eba     Total:48756      MisBP:8236   MisRate:16.89%    MPKI:0.03
PC:3e748     Total:32142      MisBP:8299   MisRate:25.82%    MPKI:0.03
PC:2ca86     Total:192548      MisBP:8317   MisRate:4.32%    MPKI:0.03
PC:18fce     Total:53680      MisBP:8427   MisRate:15.70%    MPKI:0.03
PC:2fd2c     Total:143916      MisBP:8490   MisRate:5.90%    MPKI:0.03
PC:1b7f0     Total:50876      MisBP:8613   MisRate:16.93%    MPKI:0.03
PC:319c2     Total:87183      MisBP:8819   MisRate:10.12%    MPKI:0.03
PC:31996     Total:213195      MisBP:8824   MisRate:4.14%    MPKI:0.03
PC:3bfda     Total:68913      MisBP:8900   MisRate:12.91%    MPKI:0.03
PC:2cb22     Total:116143      MisBP:8904   MisRate:7.67%    MPKI:0.03
PC:19a6c     Total:53044      MisBP:8928   MisRate:16.83%    MPKI:0.03
PC:2d64a     Total:60929      MisBP:8953   MisRate:14.69%    MPKI:0.03
PC:2fd1e     Total:145379      MisBP:9039   MisRate:6.22%    MPKI:0.03
PC:24ccc     Total:111278      MisBP:9065   MisRate:8.15%    MPKI:0.03
PC:2caae     Total:97755      MisBP:9138   MisRate:9.35%    MPKI:0.03
PC:18dfa     Total:65978      MisBP:9147   MisRate:13.86%    MPKI:0.03
PC:41130     Total:28677      MisBP:9248   MisRate:32.25%    MPKI:0.03
PC:19a52     Total:50573      MisBP:9440   MisRate:18.67%    MPKI:0.03
PC:2e48e     Total:43773      MisBP:9468   MisRate:21.63%    MPKI:0.03
PC:17de6     Total:50509      MisBP:9514   MisRate:18.84%    MPKI:0.03
PC:3c264     Total:118805      MisBP:9530   MisRate:8.02%    MPKI:0.03
PC:28796     Total:176756      MisBP:9632   MisRate:5.45%    MPKI:0.03
PC:15c92     Total:74251      MisBP:9752   MisRate:13.13%    MPKI:0.03
PC:18f84     Total:45708      MisBP:9774   MisRate:21.38%    MPKI:0.03
PC:1c82c     Total:137013      MisBP:9794   MisRate:7.15%    MPKI:0.03
PC:19614     Total:219222      MisBP:9798   MisRate:4.47%    MPKI:0.03
PC:3c7ee     Total:56666      MisBP:9874   MisRate:17.42%    MPKI:0.03
PC:3c7e0     Total:70039      MisBP:9887   MisRate:14.12%    MPKI:0.03
PC:159e8     Total:85256      MisBP:9932   MisRate:11.65%    MPKI:0.03
PC:15c9c     Total:62876      MisBP:10102   MisRate:16.07%    MPKI:0.03
PC:1973c     Total:65728      MisBP:10110   MisRate:15.38%    MPKI:0.03
PC:17db0     Total:64291      MisBP:10147   MisRate:15.78%    MPKI:0.03
PC:159d4     Total:86481      MisBP:10160   MisRate:11.75%    MPKI:0.03
PC:3cb1a     Total:39563      MisBP:10246   MisRate:25.90%    MPKI:0.03
PC:19754     Total:70462      MisBP:10384   MisRate:14.74%    MPKI:0.03
PC:1c790     Total:145925      MisBP:10568   MisRate:7.24%    MPKI:0.03
PC:512ba     Total:87109      MisBP:10586   MisRate:12.15%    MPKI:0.03
PC:1ad06     Total:58840      MisBP:10609   MisRate:18.03%    MPKI:0.03
PC:1ad02     Total:46291      MisBP:10752   MisRate:23.23%    MPKI:0.03
PC:2f3f4     Total:155815      MisBP:10776   MisRate:6.92%    MPKI:0.03
PC:17fcc     Total:114388      MisBP:10986   MisRate:9.60%    MPKI:0.04
PC:2d2c8     Total:32571      MisBP:11021   MisRate:33.84%    MPKI:0.04
PC:2d644     Total:75491      MisBP:11185   MisRate:14.82%    MPKI:0.04
PC:306ea     Total:772995      MisBP:11238   MisRate:1.45%    MPKI:0.04
PC:2ce48     Total:191468      MisBP:11582   MisRate:6.05%    MPKI:0.04
PC:314ce     Total:221657      MisBP:11614   MisRate:5.24%    MPKI:0.04
PC:18bec     Total:517091      MisBP:11839   MisRate:2.29%    MPKI:0.04
PC:51368     Total:1602545      MisBP:11840   MisRate:0.74%    MPKI:0.04
PC:2cdee     Total:198481      MisBP:12003   MisRate:6.05%    MPKI:0.04
PC:3c7b2     Total:75091      MisBP:12119   MisRate:16.14%    MPKI:0.04
PC:18e00     Total:183364      MisBP:12137   MisRate:6.62%    MPKI:0.04
PC:2d6cc     Total:122093      MisBP:12145   MisRate:9.95%    MPKI:0.04
PC:2ce78     Total:47254      MisBP:12153   MisRate:25.72%    MPKI:0.04
PC:159fe     Total:75416      MisBP:12250   MisRate:16.24%    MPKI:0.04
PC:51358     Total:2199937      MisBP:12711   MisRate:0.58%    MPKI:0.04
PC:1aca0     Total:78797      MisBP:12724   MisRate:16.15%    MPKI:0.04
PC:3be8e     Total:65166      MisBP:12734   MisRate:19.54%    MPKI:0.04
PC:2d47c     Total:73006      MisBP:12748   MisRate:17.46%    MPKI:0.04
PC:2e3e4     Total:166163      MisBP:12817   MisRate:7.71%    MPKI:0.04
PC:176c2     Total:89044      MisBP:13004   MisRate:14.60%    MPKI:0.04
PC:159f8     Total:69634      MisBP:13120   MisRate:18.84%    MPKI:0.04
PC:2cb26     Total:121637      MisBP:13133   MisRate:10.80%    MPKI:0.04
PC:15950     Total:65507      MisBP:13189   MisRate:20.13%    MPKI:0.04
PC:1b7f4     Total:42977      MisBP:13223   MisRate:30.77%    MPKI:0.04
PC:156b6     Total:197390      MisBP:13283   MisRate:6.73%    MPKI:0.04
PC:199f6     Total:83880      MisBP:13290   MisRate:15.84%    MPKI:0.04
PC:14e64     Total:67183      MisBP:13346   MisRate:19.87%    MPKI:0.04
PC:1acbc     Total:57928      MisBP:13346   MisRate:23.04%    MPKI:0.04
PC:2d2be     Total:56781      MisBP:13476   MisRate:23.73%    MPKI:0.04
PC:1b830     Total:37268      MisBP:13507   MisRate:36.24%    MPKI:0.04
PC:15a08     Total:84255      MisBP:13545   MisRate:16.08%    MPKI:0.04
PC:159ee     Total:77017      MisBP:13645   MisRate:17.72%    MPKI:0.04
PC:1c77e     Total:65618      MisBP:13830   MisRate:21.08%    MPKI:0.04
PC:286ac     Total:181765      MisBP:13914   MisRate:7.65%    MPKI:0.04
PC:1576e     Total:83224      MisBP:14176   MisRate:17.03%    MPKI:0.05
PC:1acaa     Total:66016      MisBP:14369   MisRate:21.77%    MPKI:0.05
PC:2cc64     Total:300167      MisBP:14373   MisRate:4.79%    MPKI:0.05
PC:14e10     Total:63123      MisBP:14719   MisRate:23.32%    MPKI:0.05
PC:15a0e     Total:93023      MisBP:14823   MisRate:15.93%    MPKI:0.05
PC:3bfc6     Total:57700      MisBP:14863   MisRate:25.76%    MPKI:0.05
PC:18dde     Total:53430      MisBP:14978   MisRate:28.03%    MPKI:0.05
PC:2cda0     Total:169447      MisBP:15183   MisRate:8.96%    MPKI:0.05
PC:154ac     Total:145385      MisBP:15229   MisRate:10.47%    MPKI:0.05
PC:1acd6     Total:86527      MisBP:15410   MisRate:17.81%    MPKI:0.05
PC:14ee6     Total:80407      MisBP:15428   MisRate:19.19%    MPKI:0.05
PC:1bfe2     Total:194886      MisBP:15428   MisRate:7.92%    MPKI:0.05
PC:1ace0     Total:89316      MisBP:15432   MisRate:17.28%    MPKI:0.05
PC:1c088     Total:50351      MisBP:15488   MisRate:30.76%    MPKI:0.05
PC:2e3bc     Total:118580      MisBP:15555   MisRate:13.12%    MPKI:0.05
PC:14ea4     Total:75916      MisBP:15572   MisRate:20.51%    MPKI:0.05
PC:319c8     Total:86968      MisBP:15839   MisRate:18.21%    MPKI:0.05
PC:1925a     Total:109398      MisBP:16013   MisRate:14.64%    MPKI:0.05
PC:288b8     Total:253705      MisBP:16295   MisRate:6.42%    MPKI:0.05
PC:2e3ec     Total:191542      MisBP:16349   MisRate:8.54%    MPKI:0.05
PC:18d56     Total:87995      MisBP:16372   MisRate:18.61%    MPKI:0.05
PC:2d7fe     Total:153406      MisBP:16387   MisRate:10.68%    MPKI:0.05
PC:1acb8     Total:60504      MisBP:16449   MisRate:27.19%    MPKI:0.05
PC:18f6a     Total:155773      MisBP:16471   MisRate:10.57%    MPKI:0.05
PC:28788     Total:197717      MisBP:16595   MisRate:8.39%    MPKI:0.05
PC:14f26     Total:84139      MisBP:16642   MisRate:19.78%    MPKI:0.05
PC:1c01e     Total:101066      MisBP:16646   MisRate:16.47%    MPKI:0.05
PC:2ca4a     Total:94096      MisBP:16703   MisRate:17.75%    MPKI:0.05
PC:3199e     Total:186808      MisBP:16718   MisRate:8.95%    MPKI:0.05
PC:192ac     Total:120244      MisBP:16814   MisRate:13.98%    MPKI:0.05
PC:2d576     Total:95794      MisBP:17061   MisRate:17.81%    MPKI:0.06
PC:1bf82     Total:92973      MisBP:17127   MisRate:18.42%    MPKI:0.06
PC:1595a     Total:78618      MisBP:17462   MisRate:22.21%    MPKI:0.06
PC:319bc     Total:183713      MisBP:18011   MisRate:9.80%    MPKI:0.06
PC:17e74     Total:57087      MisBP:18055   MisRate:31.63%    MPKI:0.06
PC:2d6bc     Total:148517      MisBP:18074   MisRate:12.17%    MPKI:0.06
PC:2cc6c     Total:141439      MisBP:18277   MisRate:12.92%    MPKI:0.06
PC:1c7d4     Total:63957      MisBP:18538   MisRate:28.99%    MPKI:0.06
PC:18d6a     Total:67400      MisBP:18592   MisRate:27.58%    MPKI:0.06
PC:9e50c     Total:559668      MisBP:18666   MisRate:3.34%    MPKI:0.06
PC:3cfac     Total:107783      MisBP:18695   MisRate:17.35%    MPKI:0.06
PC:3bf76     Total:537387      MisBP:18715   MisRate:3.48%    MPKI:0.06
PC:17dac     Total:74009      MisBP:18853   MisRate:25.47%    MPKI:0.06
PC:18d76     Total:89338      MisBP:18940   MisRate:21.20%    MPKI:0.06
PC:2d7f6     Total:206328      MisBP:19194   MisRate:9.30%    MPKI:0.06
PC:1c1d2     Total:77302      MisBP:19258   MisRate:24.91%    MPKI:0.06
PC:18d72     Total:78748      MisBP:19342   MisRate:24.56%    MPKI:0.06
PC:2cd68     Total:191574      MisBP:19492   MisRate:10.17%    MPKI:0.06
PC:2d6d0     Total:149191      MisBP:19581   MisRate:13.12%    MPKI:0.06
PC:1c12c     Total:109693      MisBP:20006   MisRate:18.24%    MPKI:0.06
PC:2fd58     Total:119356      MisBP:20110   MisRate:16.85%    MPKI:0.06
PC:15964     Total:96313      MisBP:20151   MisRate:20.92%    MPKI:0.07
PC:15b40     Total:83348      MisBP:20210   MisRate:24.25%    MPKI:0.07
PC:14f62     Total:90164      MisBP:20233   MisRate:22.44%    MPKI:0.07
PC:3ca14     Total:170072      MisBP:20677   MisRate:12.16%    MPKI:0.07
PC:14fb8     Total:452159      MisBP:20788   MisRate:4.60%    MPKI:0.07
PC:2e870     Total:227641      MisBP:20822   MisRate:9.15%    MPKI:0.07
PC:2cdc8     Total:189448      MisBP:21209   MisRate:11.20%    MPKI:0.07
PC:512b6     Total:207176      MisBP:22162   MisRate:10.70%    MPKI:0.07
PC:2caf6     Total:135725      MisBP:22182   MisRate:16.34%    MPKI:0.07
PC:2cd76     Total:154470      MisBP:22208   MisRate:14.38%    MPKI:0.07
PC:2ca8c     Total:188172      MisBP:22401   MisRate:11.90%    MPKI:0.07
PC:155e6     Total:89684      MisBP:22597   MisRate:25.20%    MPKI:0.07
PC:2cca2     Total:158432      MisBP:22780   MisRate:14.38%    MPKI:0.07
PC:192e0     Total:121723      MisBP:22782   MisRate:18.72%    MPKI:0.07
PC:15a1e     Total:68787      MisBP:23020   MisRate:33.47%    MPKI:0.07
PC:306c2     Total:686207      MisBP:23362   MisRate:3.40%    MPKI:0.08
PC:18cde     Total:161233      MisBP:23654   MisRate:14.67%    MPKI:0.08
PC:3ca34     Total:165220      MisBP:24287   MisRate:14.70%    MPKI:0.08
PC:2d2ae     Total:147056      MisBP:24513   MisRate:16.67%    MPKI:0.08
PC:2893e     Total:633198      MisBP:24745   MisRate:3.91%    MPKI:0.08
PC:2cc86     Total:551729      MisBP:25621   MisRate:4.64%    MPKI:0.08
PC:14fa8     Total:99540      MisBP:26907   MisRate:27.03%    MPKI:0.09
PC:3ca0a     Total:200437      MisBP:26988   MisRate:13.46%    MPKI:0.09
PC:154a2     Total:130189      MisBP:27431   MisRate:21.07%    MPKI:0.09
PC:2cd4a     Total:220984      MisBP:27931   MisRate:12.64%    MPKI:0.09
PC:3bf88     Total:87010      MisBP:28008   MisRate:32.19%    MPKI:0.09
PC:15a16     Total:81882      MisBP:28083   MisRate:34.30%    MPKI:0.09
PC:18d4c     Total:109212      MisBP:28089   MisRate:25.72%    MPKI:0.09
PC:2d29e     Total:252746      MisBP:28268   MisRate:11.18%    MPKI:0.09
PC:3c220     Total:320934      MisBP:28390   MisRate:8.85%    MPKI:0.09
PC:157ba     Total:82274      MisBP:28612   MisRate:34.78%    MPKI:0.09
PC:19314     Total:138776      MisBP:28744   MisRate:20.71%    MPKI:0.09
PC:1bf88     Total:77948      MisBP:29438   MisRate:37.77%    MPKI:0.09
PC:30696     Total:747915      MisBP:30199   MisRate:4.04%    MPKI:0.10
PC:3c6e4     Total:118459      MisBP:30888   MisRate:26.07%    MPKI:0.10
PC:3c73a     Total:207157      MisBP:31995   MisRate:15.44%    MPKI:0.10
PC:2d7ee     Total:391373      MisBP:32565   MisRate:8.32%    MPKI:0.11
PC:18bb2     Total:256960      MisBP:33566   MisRate:13.06%    MPKI:0.11
PC:14fb2     Total:414595      MisBP:33785   MisRate:8.15%    MPKI:0.11
PC:84c10     Total:94094      MisBP:33942   MisRate:36.07%    MPKI:0.11
PC:28718     Total:230240      MisBP:34006   MisRate:14.77%    MPKI:0.11
PC:3c224     Total:335877      MisBP:34117   MisRate:10.16%    MPKI:0.11
PC:18d34     Total:149325      MisBP:34125   MisRate:22.85%    MPKI:0.11
PC:512ac     Total:341438      MisBP:34586   MisRate:10.13%    MPKI:0.11
PC:18d3e     Total:126737      MisBP:35134   MisRate:27.72%    MPKI:0.11
PC:28644     Total:245502      MisBP:38157   MisRate:15.54%    MPKI:0.12
PC:156e4     Total:266674      MisBP:39044   MisRate:14.64%    MPKI:0.13
PC:3ca32     Total:270185      MisBP:39456   MisRate:14.60%    MPKI:0.13
PC:1bfe8     Total:176645      MisBP:40162   MisRate:22.74%    MPKI:0.13
PC:24cc8     Total:130557      MisBP:40899   MisRate:31.33%    MPKI:0.13
PC:306c6     Total:681719      MisBP:41438   MisRate:6.08%    MPKI:0.13
PC:2ca90     Total:217021      MisBP:42792   MisRate:19.72%    MPKI:0.14
PC:156a4     Total:244528      MisBP:44930   MisRate:18.37%    MPKI:0.14
PC:1bfa8     Total:152259      MisBP:47291   MisRate:31.06%    MPKI:0.15
PC:2d2a2     Total:282892      MisBP:47777   MisRate:16.89%    MPKI:0.15
PC:18bda     Total:400298      MisBP:50456   MisRate:12.60%    MPKI:0.16
PC:287d4     Total:205279      MisBP:50979   MisRate:24.83%    MPKI:0.16
PC:1bfca     Total:187539      MisBP:51227   MisRate:27.32%    MPKI:0.17
PC:188ca     Total:235565      MisBP:54250   MisRate:23.03%    MPKI:0.17
PC:2cc9c     Total:626731      MisBP:55778   MisRate:8.90%    MPKI:0.18
PC:2cc8c     Total:526097      MisBP:58400   MisRate:11.10%    MPKI:0.19
PC:17694     Total:1508276      MisBP:60756   MisRate:4.03%    MPKI:0.20
PC:28602     Total:2495362      MisBP:66619   MisRate:2.67%    MPKI:0.21
PC:18bde     Total:517884      MisBP:71582   MisRate:13.82%    MPKI:0.23
PC:3bf7c     Total:514294      MisBP:79548   MisRate:15.47%    MPKI:0.26
PC:2866a     Total:2476767      MisBP:123933   MisRate:5.00%    MPKI:0.40
PC:1a934     Total:484154      MisBP:141209   MisRate:29.17%    MPKI:0.46
PC:51360     Total:2199178      MisBP:179410   MisRate:8.16%    MPKI:0.58
Totfetch:630723761  TotInsts:310000000  TotMis : inf%   MPKI : 20.43
=============finish sim!!!!!!=============
Done running SimPoint!
