Global frequency set at 1000000000000 ticks per second
 Register [printBranch()] ExitCallback !!!!!!! 
gem5 Simulator System.  https://www.gem5.org
gem5 is copyrighted software; use the --copyright option for details.

gem5 version 22.0.0.2
gem5 compiled Sep  7 2022 00:42:18
gem5 started Sep  7 2022 04:53:21
gem5 executing on a100, pid 2793476
command line: /data/zxf/gem5/gem5-prof/build/ARM/gem5.fast --outdir=/data/zxf/checkpoint/spec2006/473.astar/prof/astar_ckp_8 /data/zxf/gem5/gem5-prof/configs/example/se.py --cpu-type O3CPU --cpu-clock 1GHz --num-cpu 1 --l1d-hwp-type=BOPPrefetcher --caches --l2cache --l1i_size 32kB --l1d_size 32kB --l2_size 1MB --l1i_assoc 8 --l1d_assoc 8 --l2_assoc 16 --cacheline_size 64 --mem-type DDR3_2133_8x8 --mem-size 16GB --restore-simpoint-checkpoint -r 8 --checkpoint-dir /data/zxf/checkpoint/spec2006/473.astar/ckpt -c astar_base.gcc41-64bit -o rivers.cfg

info: Standard input is not a terminal, disabling listeners.
Resuming from /data/zxf/checkpoint/spec2006/473.astar/ckpt/cpt.simpoint_07_inst_386390000000_weight_0.063424_interval_300000000_warmup_10000000
Resuming from SimPoint #7, start_inst:386390000000, weight:0.063424, interval:300000000, warmup:10000000
Switch at curTick count:10000
Switched CPUS @ tick 266111282618000
[(<m5.objects.ArmCPU.ArmAtomicSimpleCPU object at 0x7fb337dc3bb0>, <m5.objects.ArmCPU.ArmO3CPU object at 0x7fb337ddbe20>)]
switching cpus



+++++++++++++++++++++++++zxf print simpoint+++++++++++++++++++++++++++
Warmed up! Dumping and resetting stats!


=============start sim!!!!!!=============
PC:327e0     Total:1      MisBP:0   MisRate:0.00%    MPKI:0.00
PC:13754     Total:2839346      MisBP:0   MisRate:0.00%    MPKI:0.00
PC:2d51a     Total:29      MisBP:0   MisRate:0.00%    MPKI:0.00
PC:136e4     Total:3274449      MisBP:0   MisRate:0.00%    MPKI:0.00
PC:2d518     Total:29      MisBP:0   MisRate:0.00%    MPKI:0.00
PC:136e0     Total:3276983      MisBP:0   MisRate:0.00%    MPKI:0.00
PC:2cc6a     Total:14      MisBP:0   MisRate:0.00%    MPKI:0.00
PC:2d514     Total:29      MisBP:0   MisRate:0.00%    MPKI:0.00
PC:136d8     Total:3291745      MisBP:0   MisRate:0.00%    MPKI:0.00
PC:2d50c     Total:28      MisBP:0   MisRate:0.00%    MPKI:0.00
PC:136ce     Total:3380356      MisBP:0   MisRate:0.00%    MPKI:0.00
PC:2cc58     Total:14      MisBP:0   MisRate:0.00%    MPKI:0.00
PC:2d502     Total:23      MisBP:0   MisRate:0.00%    MPKI:0.00
PC:136ca     Total:3393852      MisBP:0   MisRate:0.00%    MPKI:0.00
PC:136b2     Total:3592495      MisBP:0   MisRate:0.00%    MPKI:0.00
PC:2cc70     Total:14      MisBP:0   MisRate:0.00%    MPKI:0.00
PC:2d79a     Total:1      MisBP:0   MisRate:0.00%    MPKI:0.00
PC:10b40     Total:4      MisBP:0   MisRate:0.00%    MPKI:0.00
PC:137ba     Total:841936      MisBP:0   MisRate:0.00%    MPKI:0.00
PC:2d798     Total:1      MisBP:0   MisRate:0.00%    MPKI:0.00
PC:137b8     Total:843605      MisBP:0   MisRate:0.00%    MPKI:0.00
PC:2d794     Total:1      MisBP:0   MisRate:0.00%    MPKI:0.00
PC:137b4     Total:843760      MisBP:0   MisRate:0.00%    MPKI:0.00
PC:2d5e8     Total:4      MisBP:0   MisRate:0.00%    MPKI:0.00
PC:137b0     Total:843937      MisBP:0   MisRate:0.00%    MPKI:0.00
PC:2d5e4     Total:1      MisBP:0   MisRate:0.00%    MPKI:0.00
PC:137ac     Total:844844      MisBP:0   MisRate:0.00%    MPKI:0.00
PC:2ef3c     Total:44      MisBP:0   MisRate:0.00%    MPKI:0.00
PC:2ca68     Total:8      MisBP:0   MisRate:0.00%    MPKI:0.00
PC:2d78a     Total:8      MisBP:0   MisRate:0.00%    MPKI:0.00
PC:13878     Total:255      MisBP:0   MisRate:0.00%    MPKI:0.00
PC:2cdac     Total:14      MisBP:0   MisRate:0.00%    MPKI:0.00
PC:1388e     Total:54251      MisBP:0   MisRate:0.00%    MPKI:0.00
PC:10150     Total:3      MisBP:0   MisRate:0.00%    MPKI:0.00
PC:1388c     Total:271277      MisBP:0   MisRate:0.00%    MPKI:0.00
PC:13888     Total:54259      MisBP:0   MisRate:0.00%    MPKI:0.00
PC:13980     Total:54094      MisBP:0   MisRate:0.00%    MPKI:0.00
PC:1397a     Total:54189      MisBP:0   MisRate:0.00%    MPKI:0.00
PC:13c68     Total:9      MisBP:0   MisRate:0.00%    MPKI:0.00
PC:2d39e     Total:28      MisBP:0   MisRate:0.00%    MPKI:0.00
PC:1399c     Total:54077      MisBP:0   MisRate:0.00%    MPKI:0.00
PC:13996     Total:54123      MisBP:0   MisRate:0.00%    MPKI:0.00
PC:1398e     Total:54124      MisBP:0   MisRate:0.00%    MPKI:0.00
PC:1387c     Total:255      MisBP:0   MisRate:0.00%    MPKI:0.00
PC:1387a     Total:255      MisBP:0   MisRate:0.00%    MPKI:0.00
PC:137aa     Total:844851      MisBP:0   MisRate:0.00%    MPKI:0.00
PC:13c7a     Total:2      MisBP:0   MisRate:0.00%    MPKI:0.00
PC:13840     Total:718386      MisBP:0   MisRate:0.00%    MPKI:0.00
PC:2cd5c     Total:2      MisBP:0   MisRate:0.00%    MPKI:0.00
PC:13876     Total:255      MisBP:0   MisRate:0.00%    MPKI:0.00
PC:1383c     Total:759797      MisBP:0   MisRate:0.00%    MPKI:0.00
PC:2cd58     Total:2      MisBP:0   MisRate:0.00%    MPKI:0.00
PC:13872     Total:255      MisBP:0   MisRate:0.00%    MPKI:0.00
PC:13838     Total:760263      MisBP:0   MisRate:0.00%    MPKI:0.00
PC:1386e     Total:255      MisBP:0   MisRate:0.00%    MPKI:0.00
PC:1386c     Total:255      MisBP:0   MisRate:0.00%    MPKI:0.00
PC:2cd88     Total:23      MisBP:0   MisRate:0.00%    MPKI:0.00
PC:136ea     Total:3190723      MisBP:0   MisRate:0.00%    MPKI:0.00
PC:136e6     Total:3273291      MisBP:0   MisRate:0.00%    MPKI:0.00
PC:2cc6c     Total:14      MisBP:0   MisRate:0.00%    MPKI:0.00
PC:2d5c6     Total:27      MisBP:0   MisRate:0.00%    MPKI:0.00
PC:13c56     Total:11      MisBP:0   MisRate:0.00%    MPKI:0.00
PC:2d7fc     Total:7      MisBP:0   MisRate:0.00%    MPKI:0.00
PC:1381c     Total:2411390      MisBP:0   MisRate:0.00%    MPKI:0.00
PC:2efac     Total:104      MisBP:0   MisRate:0.00%    MPKI:0.00
PC:14826     Total:29      MisBP:0   MisRate:0.00%    MPKI:0.00
PC:2cad8     Total:1      MisBP:0   MisRate:0.00%    MPKI:0.00
PC:13852     Total:717608      MisBP:0   MisRate:0.00%    MPKI:0.00
PC:13c52     Total:3      MisBP:0   MisRate:0.00%    MPKI:0.00
PC:2d7f8     Total:7      MisBP:0   MisRate:0.00%    MPKI:0.00
PC:2d64c     Total:1      MisBP:0   MisRate:0.00%    MPKI:0.00
PC:1384e     Total:717684      MisBP:0   MisRate:0.00%    MPKI:0.00
PC:2cd6a     Total:2      MisBP:0   MisRate:0.00%    MPKI:0.00
PC:13750     Total:28687316      MisBP:0   MisRate:0.00%    MPKI:0.00
PC:13792     Total:848761      MisBP:0   MisRate:0.00%    MPKI:0.00
PC:13c4e     Total:3      MisBP:0   MisRate:0.00%    MPKI:0.00
PC:2d7f4     Total:7      MisBP:0   MisRate:0.00%    MPKI:0.00
PC:13814     Total:5132466      MisBP:0   MisRate:0.00%    MPKI:0.00
PC:2d648     Total:1      MisBP:0   MisRate:0.00%    MPKI:0.00
PC:1384a     Total:717512      MisBP:0   MisRate:0.00%    MPKI:0.00
PC:13c4c     Total:3      MisBP:0   MisRate:0.00%    MPKI:0.00
PC:13848     Total:718176      MisBP:0   MisRate:0.00%    MPKI:0.00
PC:2cd64     Total:2      MisBP:0   MisRate:0.00%    MPKI:0.00
PC:2d7f0     Total:7      MisBP:0   MisRate:0.00%    MPKI:0.00
PC:13810     Total:8293774      MisBP:0   MisRate:0.00%    MPKI:0.00
PC:2efa0     Total:27      MisBP:0   MisRate:0.00%    MPKI:0.00
PC:1481a     Total:30      MisBP:0   MisRate:0.00%    MPKI:0.00
PC:2d644     Total:1      MisBP:0   MisRate:0.00%    MPKI:0.00
PC:13846     Total:718181      MisBP:0   MisRate:0.00%    MPKI:0.00
PC:2d5d4     Total:1      MisBP:0   MisRate:0.00%    MPKI:0.00
PC:2d5de     Total:1      MisBP:0   MisRate:0.00%    MPKI:0.00
PC:2d788     Total:8      MisBP:0   MisRate:0.00%    MPKI:0.00
PC:10b2e     Total:10      MisBP:0   MisRate:0.00%    MPKI:0.00
PC:137a8     Total:845568      MisBP:0   MisRate:0.00%    MPKI:0.00
PC:2ef38     Total:45      MisBP:0   MisRate:0.00%    MPKI:0.00
PC:2ca64     Total:8      MisBP:0   MisRate:0.00%    MPKI:0.00
PC:2d5dc     Total:1      MisBP:0   MisRate:0.00%    MPKI:0.00
PC:137a6     Total:846341      MisBP:0   MisRate:0.00%    MPKI:0.00
PC:2d784     Total:8      MisBP:0   MisRate:0.00%    MPKI:0.00
PC:137a4     Total:846438      MisBP:0   MisRate:0.00%    MPKI:0.00
PC:2d5d8     Total:1      MisBP:0   MisRate:0.00%    MPKI:0.00
PC:139a2     Total:37      MisBP:0   MisRate:0.00%    MPKI:0.00
PC:2d780     Total:8      MisBP:0   MisRate:0.00%    MPKI:0.00
PC:137a0     Total:846967      MisBP:0   MisRate:0.00%    MPKI:0.00
PC:13890     Total:54250      MisBP:0   MisRate:0.00%    MPKI:0.00
PC:139a0     Total:37      MisBP:0   MisRate:0.00%    MPKI:0.00
PC:1379e     Total:847471      MisBP:0   MisRate:0.00%    MPKI:0.00
PC:2d5d2     Total:1      MisBP:0   MisRate:0.00%    MPKI:0.00
PC:2d398     Total:280      MisBP:0   MisRate:0.00%    MPKI:0.00
PC:2d77c     Total:9      MisBP:0   MisRate:0.00%    MPKI:0.00
PC:1379c     Total:847761      MisBP:0   MisRate:0.00%    MPKI:0.00
PC:2c47c     Total:3      MisBP:0   MisRate:0.00%    MPKI:0.00
PC:2d5d0     Total:27      MisBP:0   MisRate:0.00%    MPKI:0.00
PC:13798     Total:847773      MisBP:0   MisRate:0.00%    MPKI:0.00
PC:13998     Total:54122      MisBP:0   MisRate:0.00%    MPKI:0.00
PC:2d776     Total:9      MisBP:0   MisRate:0.00%    MPKI:0.00
PC:13796     Total:847820      MisBP:0   MisRate:0.00%    MPKI:0.00
PC:2d5ca     Total:27      MisBP:0   MisRate:0.00%    MPKI:0.00
PC:10aea     Total:11      MisBP:0   MisRate:0.00%    MPKI:0.00
PC:10b28     Total:10      MisBP:0   MisRate:0.00%    MPKI:0.00
PC:2d77a     Total:9      MisBP:0   MisRate:0.00%    MPKI:0.00
PC:10b20     Total:10      MisBP:0   MisRate:0.00%    MPKI:0.00
PC:2d774     Total:9      MisBP:0   MisRate:0.00%    MPKI:0.00
PC:10b1a     Total:10      MisBP:0   MisRate:0.00%    MPKI:0.00
PC:31cbc     Total:2      MisBP:0   MisRate:0.00%    MPKI:0.00
PC:10b12     Total:10      MisBP:0   MisRate:0.00%    MPKI:0.00
PC:10b0c     Total:10      MisBP:0   MisRate:0.00%    MPKI:0.00
PC:2d75e     Total:12      MisBP:0   MisRate:0.00%    MPKI:0.00
PC:10b04     Total:11      MisBP:0   MisRate:0.00%    MPKI:0.00
PC:31ca8     Total:2      MisBP:0   MisRate:0.00%    MPKI:0.00
PC:2d748     Total:22      MisBP:0   MisRate:0.00%    MPKI:0.00
PC:10aee     Total:11      MisBP:0   MisRate:0.00%    MPKI:0.00
PC:2d744     Total:17      MisBP:0   MisRate:0.00%    MPKI:0.00
PC:2d782     Total:8      MisBP:0   MisRate:0.00%    MPKI:0.00
PC:2d740     Total:17      MisBP:0   MisRate:0.00%    MPKI:0.00
PC:10ae6     Total:11      MisBP:0   MisRate:0.00%    MPKI:0.00
PC:2d67c     Total:1      MisBP:0   MisRate:0.00%    MPKI:0.00
PC:2d678     Total:1      MisBP:0   MisRate:0.00%    MPKI:0.00
PC:2d676     Total:1      MisBP:0   MisRate:0.00%    MPKI:0.00
PC:2d674     Total:1      MisBP:0   MisRate:0.00%    MPKI:0.00
PC:2d670     Total:1      MisBP:0   MisRate:0.00%    MPKI:0.00
PC:2d66e     Total:1      MisBP:0   MisRate:0.00%    MPKI:0.00
PC:2d66c     Total:1      MisBP:0   MisRate:0.00%    MPKI:0.00
PC:2d66a     Total:1      MisBP:0   MisRate:0.00%    MPKI:0.00
PC:2d668     Total:1      MisBP:0   MisRate:0.00%    MPKI:0.00
PC:2d664     Total:1      MisBP:0   MisRate:0.00%    MPKI:0.00
PC:2d662     Total:1      MisBP:0   MisRate:0.00%    MPKI:0.00
PC:2d660     Total:1      MisBP:0   MisRate:0.00%    MPKI:0.00
PC:2c8a2     Total:14      MisBP:0   MisRate:0.00%    MPKI:0.00
PC:13a44     Total:4424      MisBP:0   MisRate:0.00%    MPKI:0.00
PC:2cf60     Total:1      MisBP:0   MisRate:0.00%    MPKI:0.00
PC:2da24     Total:27      MisBP:0   MisRate:0.00%    MPKI:0.00
PC:2da22     Total:27      MisBP:0   MisRate:0.00%    MPKI:0.00
PC:2da20     Total:27      MisBP:0   MisRate:0.00%    MPKI:0.00
PC:2da1e     Total:27      MisBP:0   MisRate:0.00%    MPKI:0.00
PC:13a3a     Total:4856      MisBP:0   MisRate:0.00%    MPKI:0.00
PC:2cf56     Total:1      MisBP:0   MisRate:0.00%    MPKI:0.00
PC:2da1a     Total:27      MisBP:0   MisRate:0.00%    MPKI:0.00
PC:2da08     Total:27      MisBP:0   MisRate:0.00%    MPKI:0.00
PC:323b0     Total:2      MisBP:0   MisRate:0.00%    MPKI:0.00
PC:2da02     Total:21      MisBP:0   MisRate:0.00%    MPKI:0.00
PC:2d9fc     Total:22      MisBP:0   MisRate:0.00%    MPKI:0.00
PC:323a4     Total:2      MisBP:0   MisRate:0.00%    MPKI:0.00
PC:2d65e     Total:1      MisBP:0   MisRate:0.00%    MPKI:0.00
PC:324b4     Total:4      MisBP:0   MisRate:0.00%    MPKI:0.00
PC:2d9f6     Total:25      MisBP:0   MisRate:0.00%    MPKI:0.00
PC:2c89e     Total:14      MisBP:0   MisRate:0.00%    MPKI:0.00
PC:2d9f2     Total:25      MisBP:0   MisRate:0.00%    MPKI:0.00
PC:2c886     Total:17      MisBP:0   MisRate:0.00%    MPKI:0.00
PC:32498     Total:6      MisBP:0   MisRate:0.00%    MPKI:0.00
PC:2d9da     Total:23      MisBP:0   MisRate:0.00%    MPKI:0.00
PC:2d796     Total:1      MisBP:0   MisRate:0.00%    MPKI:0.00
PC:10b3c     Total:13      MisBP:0   MisRate:0.00%    MPKI:0.00
PC:2d792     Total:1      MisBP:0   MisRate:0.00%    MPKI:0.00
PC:10b38     Total:13      MisBP:0   MisRate:0.00%    MPKI:0.00
PC:2d78e     Total:1      MisBP:0   MisRate:0.00%    MPKI:0.00
PC:10b34     Total:13      MisBP:0   MisRate:0.00%    MPKI:0.00
PC:138a4     Total:22802      MisBP:0   MisRate:0.00%    MPKI:0.00
PC:2cd4a     Total:32      MisBP:0   MisRate:0.00%    MPKI:0.00
PC:13c5c     Total:34      MisBP:0   MisRate:0.00%    MPKI:0.00
PC:13c54     Total:3      MisBP:0   MisRate:0.00%    MPKI:0.00
PC:1381a     Total:2412019      MisBP:0   MisRate:0.00%    MPKI:0.00
PC:2cd36     Total:27      MisBP:0   MisRate:0.00%    MPKI:0.00
PC:13c50     Total:3      MisBP:0   MisRate:0.00%    MPKI:0.00
PC:13816     Total:5129791      MisBP:0   MisRate:0.00%    MPKI:0.00
PC:2cd32     Total:27      MisBP:0   MisRate:0.00%    MPKI:0.00
PC:13886     Total:1      MisBP:0   MisRate:0.00%    MPKI:0.00
PC:13884     Total:1      MisBP:0   MisRate:0.00%    MPKI:0.00
PC:13882     Total:1      MisBP:0   MisRate:0.00%    MPKI:0.00
PC:13880     Total:199      MisBP:0   MisRate:0.00%    MPKI:0.00
PC:138aa     Total:22663      MisBP:0   MisRate:0.00%    MPKI:0.00
PC:1016c     Total:3      MisBP:0   MisRate:0.00%    MPKI:0.00
PC:2cd50     Total:32      MisBP:0   MisRate:0.00%    MPKI:0.00
PC:138a2     Total:22802      MisBP:0   MisRate:0.00%    MPKI:0.00
PC:2cdbe     Total:1      MisBP:0   MisRate:0.00%    MPKI:0.00
PC:10164     Total:3      MisBP:0   MisRate:0.00%    MPKI:0.00
PC:1389e     Total:22802      MisBP:0   MisRate:0.00%    MPKI:0.00
PC:2cdba     Total:1      MisBP:0   MisRate:0.00%    MPKI:0.00
PC:10160     Total:3      MisBP:0   MisRate:0.00%    MPKI:0.00
PC:1389c     Total:22802      MisBP:0   MisRate:0.00%    MPKI:0.00
PC:2cdb8     Total:14      MisBP:0   MisRate:0.00%    MPKI:0.00
PC:1015c     Total:3      MisBP:0   MisRate:0.00%    MPKI:0.00
PC:13896     Total:54264      MisBP:0   MisRate:0.00%    MPKI:0.00
PC:13894     Total:54225      MisBP:0   MisRate:0.00%    MPKI:0.00
PC:2cdb0     Total:14      MisBP:0   MisRate:0.00%    MPKI:0.00
PC:13892     Total:54226      MisBP:0   MisRate:0.00%    MPKI:0.00
PC:10154     Total:3      MisBP:0   MisRate:0.00%    MPKI:0.00
PC:13a0e     Total:32      MisBP:0   MisRate:0.00%    MPKI:0.00
PC:2d65c     Total:1      MisBP:0   MisRate:0.00%    MPKI:0.00
PC:2d65a     Total:1      MisBP:0   MisRate:0.00%    MPKI:0.00
PC:2d656     Total:1      MisBP:0   MisRate:0.00%    MPKI:0.00
PC:2d654     Total:1      MisBP:0   MisRate:0.00%    MPKI:0.00
PC:2d650     Total:1      MisBP:0   MisRate:0.00%    MPKI:0.00
PC:2c8b0     Total:14      MisBP:0   MisRate:0.00%    MPKI:0.00
PC:10ec0     Total:6      MisBP:0   MisRate:0.00%    MPKI:0.00
PC:2da04     Total:21      MisBP:0   MisRate:0.00%    MPKI:0.00
PC:323ac     Total:2      MisBP:0   MisRate:0.00%    MPKI:0.00
PC:13a24     Total:17      MisBP:0   MisRate:0.00%    MPKI:0.00
PC:2cf40     Total:15      MisBP:0   MisRate:0.00%    MPKI:0.00
PC:2c89a     Total:14      MisBP:0   MisRate:0.00%    MPKI:0.00
PC:324ac     Total:4      MisBP:0   MisRate:0.00%    MPKI:0.00
PC:2d9ee     Total:19      MisBP:0   MisRate:0.00%    MPKI:0.00
PC:13844     Total:718186      MisBP:0   MisRate:0.00%    MPKI:0.00
PC:2d9e6     Total:19      MisBP:0   MisRate:0.00%    MPKI:0.00
PC:13a06     Total:32      MisBP:0   MisRate:0.00%    MPKI:0.00
PC:2c88e     Total:17      MisBP:0   MisRate:0.00%    MPKI:0.00
PC:324a0     Total:4      MisBP:0   MisRate:0.00%    MPKI:0.00
PC:13a02     Total:32      MisBP:0   MisRate:0.00%    MPKI:0.00
PC:2d3fc     Total:1      MisBP:0   MisRate:0.00%    MPKI:0.00
PC:2c884     Total:17      MisBP:0   MisRate:0.00%    MPKI:0.00
PC:2d9d8     Total:23      MisBP:0   MisRate:0.00%    MPKI:0.00
PC:32380     Total:2      MisBP:0   MisRate:0.00%    MPKI:0.00
PC:139f8     Total:33      MisBP:0   MisRate:0.00%    MPKI:0.00
PC:2d3f2     Total:2      MisBP:0   MisRate:0.00%    MPKI:0.00
PC:13c74     Total:2      MisBP:0   MisRate:0.00%    MPKI:0.00
PC:13c6e     Total:2      MisBP:0   MisRate:0.00%    MPKI:0.00
PC:32390     Total:1      MisBP:0   MisRate:0.00%    MPKI:0.00
PC:13a00     Total:32      MisBP:0   MisRate:0.00%    MPKI:0.00
PC:2d3fa     Total:2      MisBP:0   MisRate:0.00%    MPKI:0.00
PC:2d7de     Total:5      MisBP:0   MisRate:0.00%    MPKI:0.00
PC:137fe     Total:9260022      MisBP:0   MisRate:0.00%    MPKI:0.00
PC:2d632     Total:12      MisBP:0   MisRate:0.00%    MPKI:0.00
PC:2c890     Total:14      MisBP:0   MisRate:0.00%    MPKI:0.00
PC:2d9e4     Total:19      MisBP:0   MisRate:0.00%    MPKI:0.00
PC:3238c     Total:1      MisBP:0   MisRate:0.00%    MPKI:0.00
PC:13a04     Total:32      MisBP:0   MisRate:0.00%    MPKI:0.00
PC:2d7e2     Total:5      MisBP:0   MisRate:0.00%    MPKI:0.00
PC:13802     Total:9256823      MisBP:0   MisRate:0.00%    MPKI:0.00
PC:2d636     Total:11      MisBP:0   MisRate:0.00%    MPKI:0.00
PC:2c894     Total:14      MisBP:0   MisRate:0.00%    MPKI:0.00
PC:2d9e8     Total:19      MisBP:0   MisRate:0.00%    MPKI:0.00
PC:2d9e0     Total:23      MisBP:0   MisRate:0.00%    MPKI:0.00
PC:13a08     Total:32      MisBP:0   MisRate:0.00%    MPKI:0.00
PC:13806     Total:9240619      MisBP:0   MisRate:0.00%    MPKI:0.00
PC:2d63a     Total:10      MisBP:0   MisRate:0.00%    MPKI:0.00
PC:1385a     Total:1077      MisBP:0   MisRate:0.00%    MPKI:0.00
PC:2cd76     Total:2      MisBP:0   MisRate:0.00%    MPKI:0.00
PC:1375c     Total:2816038      MisBP:0   MisRate:0.00%    MPKI:0.00
PC:2ef8e     Total:34      MisBP:0   MisRate:0.00%    MPKI:0.00
PC:2caba     Total:2      MisBP:0   MisRate:0.00%    MPKI:0.00
PC:326cc     Total:2      MisBP:0   MisRate:0.00%    MPKI:0.00
PC:2d590     Total:41      MisBP:0   MisRate:0.00%    MPKI:0.00
PC:1385c     Total:1074      MisBP:0   MisRate:0.00%    MPKI:0.00
PC:1385e     Total:1074      MisBP:0   MisRate:0.00%    MPKI:0.00
PC:2cd7a     Total:2      MisBP:0   MisRate:0.00%    MPKI:0.00
PC:13860     Total:1071      MisBP:0   MisRate:0.00%    MPKI:0.00
PC:2d58a     Total:41      MisBP:0   MisRate:0.00%    MPKI:0.00
PC:137f4     Total:9875882      MisBP:0   MisRate:0.00%    MPKI:0.00
PC:13856     Total:1077      MisBP:0   MisRate:0.00%    MPKI:0.00
PC:2cd72     Total:2      MisBP:0   MisRate:0.00%    MPKI:0.00
PC:1370c     Total:3075899      MisBP:0   MisRate:0.00%    MPKI:0.00
PC:2d9ec     Total:19      MisBP:0   MisRate:0.00%    MPKI:0.00
PC:13a0c     Total:32      MisBP:0   MisRate:0.00%    MPKI:0.00
PC:2d7ea     Total:8      MisBP:0   MisRate:0.00%    MPKI:0.00
PC:1380a     Total:8309506      MisBP:0   MisRate:0.00%    MPKI:0.00
PC:2d63e     Total:10      MisBP:0   MisRate:0.00%    MPKI:0.00
PC:2cd70     Total:2      MisBP:0   MisRate:0.00%    MPKI:0.00
PC:13756     Total:2839223      MisBP:0   MisRate:0.00%    MPKI:0.00
PC:2cc72     Total:14      MisBP:0   MisRate:0.00%    MPKI:0.00
PC:2ef88     Total:34      MisBP:0   MisRate:0.00%    MPKI:0.00
PC:14802     Total:30      MisBP:0   MisRate:0.00%    MPKI:0.00
PC:13762     Total:2802727      MisBP:0   MisRate:0.00%    MPKI:0.00
PC:136f2     Total:3184026      MisBP:0   MisRate:0.00%    MPKI:0.00
PC:2d526     Total:1      MisBP:0   MisRate:0.00%    MPKI:0.00
PC:137f0     Total:7069006      MisBP:0   MisRate:0.00%    MPKI:0.00
PC:136ee     Total:3189119      MisBP:0   MisRate:0.00%    MPKI:0.00
PC:13710     Total:3074562      MisBP:0   MisRate:0.00%    MPKI:0.00
PC:2c89c     Total:14      MisBP:0   MisRate:0.00%    MPKI:0.00
PC:2d9f0     Total:25      MisBP:0   MisRate:0.00%    MPKI:0.00
PC:32398     Total:2      MisBP:0   MisRate:0.00%    MPKI:0.00
PC:13a10     Total:32      MisBP:0   MisRate:0.00%    MPKI:0.00
PC:2d7ee     Total:7      MisBP:0   MisRate:0.00%    MPKI:0.00
PC:1380e     Total:8307303      MisBP:0   MisRate:0.00%    MPKI:0.00
PC:2d642     Total:8      MisBP:0   MisRate:0.00%    MPKI:0.00
PC:2c88c     Total:17      MisBP:0   MisRate:0.00%    MPKI:0.00
PC:2d5fc     Total:40      MisBP:0   MisRate:0.00%    MPKI:0.00
PC:2d7a2     Total:1      MisBP:0   MisRate:0.00%    MPKI:0.00
PC:137c2     Total:2851636      MisBP:0   MisRate:0.00%    MPKI:0.00
PC:2d5f6     Total:40      MisBP:0   MisRate:0.00%    MPKI:0.00
PC:136be     Total:3399013      MisBP:0   MisRate:0.00%    MPKI:0.00
PC:327ec     Total:2      MisBP:0   MisRate:0.00%    MPKI:0.00
PC:2cc48     Total:14      MisBP:0   MisRate:0.00%    MPKI:0.00
PC:2d4f2     Total:24      MisBP:0   MisRate:0.00%    MPKI:0.00
PC:138c0     Total:2905510      MisBP:0   MisRate:0.00%    MPKI:0.00
PC:2cddc     Total:2      MisBP:0   MisRate:0.00%    MPKI:0.00
PC:2d7a4     Total:1      MisBP:0   MisRate:0.00%    MPKI:0.00
PC:10b4a     Total:4      MisBP:0   MisRate:0.00%    MPKI:0.00
PC:137c4     Total:2847378      MisBP:0   MisRate:0.00%    MPKI:0.00
PC:2d5f8     Total:40      MisBP:0   MisRate:0.00%    MPKI:0.00
PC:137c8     Total:2847120      MisBP:0   MisRate:0.00%    MPKI:0.00
PC:2cd86     Total:4      MisBP:0   MisRate:0.00%    MPKI:0.00
PC:137ca     Total:2840473      MisBP:0   MisRate:0.00%    MPKI:0.00
PC:2d5fe     Total:40      MisBP:0   MisRate:0.00%    MPKI:0.00
PC:136c6     Total:3394882      MisBP:0   MisRate:0.00%    MPKI:0.00
PC:327f4     Total:1      MisBP:0   MisRate:0.00%    MPKI:0.00
PC:138c8     Total:2983475      MisBP:0   MisRate:0.00%    MPKI:0.00
PC:137ce     Total:2836847      MisBP:0   MisRate:0.00%    MPKI:0.00
PC:2d602     Total:39      MisBP:0   MisRate:0.00%    MPKI:0.00
PC:137d0     Total:3760946      MisBP:0   MisRate:0.00%    MPKI:0.00
PC:136cc     Total:3387800      MisBP:0   MisRate:0.00%    MPKI:0.00
PC:2d500     Total:23      MisBP:0   MisRate:0.00%    MPKI:0.00
PC:138ce     Total:2982999      MisBP:0   MisRate:0.00%    MPKI:0.00
PC:2cdea     Total:2      MisBP:0   MisRate:0.00%    MPKI:0.00
PC:10190     Total:1      MisBP:0   MisRate:0.00%    MPKI:0.00
PC:137d4     Total:3759994      MisBP:0   MisRate:0.00%    MPKI:0.00
PC:2d79e     Total:1      MisBP:0   MisRate:0.00%    MPKI:0.00
PC:13862     Total:1071      MisBP:0   MisRate:0.00%    MPKI:0.00
PC:2cd7e     Total:3      MisBP:0   MisRate:0.00%    MPKI:0.00
PC:13866     Total:3008276      MisBP:0   MisRate:0.00%    MPKI:0.00
PC:2cd82     Total:2      MisBP:0   MisRate:0.00%    MPKI:0.00
PC:2d74a     Total:22      MisBP:0   MisRate:0.00%    MPKI:0.00
PC:1376a     Total:2776230      MisBP:0   MisRate:0.00%    MPKI:0.00
PC:2d59e     Total:4      MisBP:0   MisRate:0.00%    MPKI:0.00
PC:2d79c     Total:1      MisBP:0   MisRate:0.00%    MPKI:0.00
PC:10b42     Total:4      MisBP:0   MisRate:0.00%    MPKI:0.00
PC:137bc     Total:2926573      MisBP:0   MisRate:0.00%    MPKI:0.00
PC:136b8     Total:3587241      MisBP:0   MisRate:0.00%    MPKI:0.00
PC:2d4ec     Total:17      MisBP:0   MisRate:0.00%    MPKI:0.00
PC:138ba     Total:2964843      MisBP:0   MisRate:0.00%    MPKI:0.00
PC:1017c     Total:3      MisBP:0   MisRate:0.00%    MPKI:0.00
PC:2d52a     Total:1      MisBP:0   MisRate:0.00%    MPKI:0.00
PC:10b44     Total:4      MisBP:0   MisRate:0.00%    MPKI:0.00
PC:137be     Total:2924426      MisBP:0   MisRate:0.00%    MPKI:0.00
PC:2d5f2     Total:40      MisBP:0   MisRate:0.00%    MPKI:0.00
PC:136ba     Total:3582317      MisBP:0   MisRate:0.00%    MPKI:0.00
PC:327e8     Total:1      MisBP:0   MisRate:0.00%    MPKI:0.00
PC:2cc44     Total:14      MisBP:0   MisRate:0.00%    MPKI:0.00
PC:2d4ee     Total:17      MisBP:0   MisRate:0.00%    MPKI:0.00
PC:138bc     Total:2964232      MisBP:0   MisRate:0.00%    MPKI:0.00
PC:2cdd8     Total:2      MisBP:0   MisRate:0.00%    MPKI:0.00
PC:2d7a0     Total:1      MisBP:0   MisRate:0.00%    MPKI:0.00
PC:10b46     Total:4      MisBP:0   MisRate:0.00%    MPKI:0.00
PC:136bc     Total:3581267      MisBP:0   MisRate:0.00%    MPKI:0.00
PC:138be     Total:2947318      MisBP:0   MisRate:0.00%    MPKI:0.00
PC:323a8     Total:2      MisBP:0   MisRate:0.00%    MPKI:0.00
PC:13828     Total:2978661      MisBP:0   MisRate:0.00%    MPKI:0.00
PC:2cd42     Total:32      MisBP:0   MisRate:0.00%    MPKI:0.00
PC:13c60     Total:34      MisBP:0   MisRate:0.00%    MPKI:0.00
PC:2c8b2     Total:14      MisBP:0   MisRate:0.00%    MPKI:0.00
PC:2da06     Total:21      MisBP:0   MisRate:0.00%    MPKI:0.00
PC:13a26     Total:17      MisBP:0   MisRate:0.00%    MPKI:0.00
PC:2cf42     Total:15      MisBP:0   MisRate:0.00%    MPKI:0.00
PC:13824     Total:2405850      MisBP:0   MisRate:0.00%    MPKI:0.00
PC:13820     Total:2408058      MisBP:0   MisRate:0.00%    MPKI:0.00
PC:2cd3c     Total:33      MisBP:0   MisRate:0.00%    MPKI:0.00
PC:13c5a     Total:34      MisBP:0   MisRate:0.00%    MPKI:0.00
PC:2c8ac     Total:14      MisBP:0   MisRate:0.00%    MPKI:0.00
PC:10ebc     Total:8      MisBP:0   MisRate:0.00%    MPKI:0.00
PC:2da00     Total:21      MisBP:0   MisRate:0.00%    MPKI:0.00
PC:2cf46     Total:15      MisBP:0   MisRate:0.00%    MPKI:0.00
PC:13a20     Total:11      MisBP:0   MisRate:0.00%    MPKI:0.00
PC:1381e     Total:2408622      MisBP:0   MisRate:0.00%    MPKI:0.00
PC:2cd3a     Total:33      MisBP:0   MisRate:0.00%    MPKI:0.00
PC:2c8aa     Total:14      MisBP:0   MisRate:0.00%    MPKI:0.00
PC:10eba     Total:8      MisBP:0   MisRate:0.00%    MPKI:0.00
PC:324bc     Total:4      MisBP:0   MisRate:0.00%    MPKI:0.00
PC:2d9fe     Total:22      MisBP:0   MisRate:0.00%    MPKI:0.00
PC:13a1e     Total:11      MisBP:0   MisRate:0.00%    MPKI:0.00
PC:2c8a6     Total:14      MisBP:0   MisRate:0.00%    MPKI:0.00
PC:10eb6     Total:8      MisBP:0   MisRate:0.00%    MPKI:0.00
PC:324b8     Total:4      MisBP:0   MisRate:0.00%    MPKI:0.00
PC:2d9fa     Total:23      MisBP:0   MisRate:0.00%    MPKI:0.00
PC:13a1a     Total:11      MisBP:0   MisRate:0.00%    MPKI:0.00
PC:323a0     Total:2      MisBP:0   MisRate:0.00%    MPKI:0.00
PC:13a2e     Total:17      MisBP:0   MisRate:0.00%    MPKI:0.00
PC:2cd60     Total:2      MisBP:0   MisRate:0.00%    MPKI:0.00
PC:13836     Total:777373      MisBP:0   MisRate:0.00%    MPKI:0.00
PC:2cd52     Total:32      MisBP:0   MisRate:0.00%    MPKI:0.00
PC:13832     Total:778719      MisBP:0   MisRate:0.00%    MPKI:0.00
PC:2cd4e     Total:32      MisBP:0   MisRate:0.00%    MPKI:0.00
PC:13830     Total:778719      MisBP:0   MisRate:0.00%    MPKI:0.00
PC:13c6a     Total:9      MisBP:0   MisRate:0.00%    MPKI:0.00
PC:2c8bc     Total:2      MisBP:0   MisRate:0.00%    MPKI:0.00
PC:10ecc     Total:6      MisBP:0   MisRate:0.00%    MPKI:0.00
PC:2da10     Total:27      MisBP:0   MisRate:0.00%    MPKI:0.00
PC:323b8     Total:2      MisBP:0   MisRate:0.00%    MPKI:0.00
PC:13a30     Total:16      MisBP:0   MisRate:0.00%    MPKI:0.00
PC:10eca     Total:6      MisBP:0   MisRate:0.00%    MPKI:0.00
PC:2da0e     Total:27      MisBP:0   MisRate:0.00%    MPKI:0.00
PC:13a18     Total:11      MisBP:0   MisRate:0.00%    MPKI:0.00
PC:1382c     Total:2978228      MisBP:0   MisRate:0.00%    MPKI:0.00
PC:2d39c     Total:28      MisBP:0   MisRate:0.00%    MPKI:0.00
PC:13c66     Total:9      MisBP:0   MisRate:0.00%    MPKI:0.00
PC:2c8b8     Total:14      MisBP:0   MisRate:0.00%    MPKI:0.00
PC:13a2c     Total:17      MisBP:0   MisRate:0.00%    MPKI:0.00
PC:2cf48     Total:15      MisBP:0   MisRate:0.00%    MPKI:0.00
PC:1382a     Total:2978430      MisBP:0   MisRate:0.00%    MPKI:0.00
PC:2cd46     Total:32      MisBP:0   MisRate:0.00%    MPKI:0.00
PC:13c64     Total:10      MisBP:0   MisRate:0.00%    MPKI:0.00
PC:2c8b6     Total:14      MisBP:0   MisRate:0.00%    MPKI:0.00
PC:10ec6     Total:6      MisBP:0   MisRate:0.00%    MPKI:0.00
PC:2da0a     Total:27      MisBP:0   MisRate:0.00%    MPKI:0.00
PC:13a2a     Total:17      MisBP:0   MisRate:0.00%    MPKI:0.00
PC:2d630     Total:12      MisBP:0   MisRate:0.00%    MPKI:0.00
PC:2d626     Total:148      MisBP:0   MisRate:0.00%    MPKI:0.00
PC:136f4     Total:3183246      MisBP:0   MisRate:0.00%    MPKI:0.00
PC:13706     Total:3079052      MisBP:0   MisRate:0.00%    MPKI:0.00
PC:2d7ce     Total:21      MisBP:0   MisRate:0.00%    MPKI:0.00
PC:137ee     Total:7071958      MisBP:0   MisRate:0.00%    MPKI:0.00
PC:2d622     Total:141      MisBP:0   MisRate:0.00%    MPKI:0.00
PC:13702     Total:3080215      MisBP:0   MisRate:0.00%    MPKI:0.00
PC:2d536     Total:38      MisBP:0   MisRate:0.00%    MPKI:0.00
PC:137ea     Total:2885991      MisBP:0   MisRate:0.00%    MPKI:0.00
PC:2d61e     Total:144      MisBP:0   MisRate:0.00%    MPKI:0.00
PC:136fe     Total:3088378      MisBP:0   MisRate:0.00%    MPKI:0.00
PC:2d532     Total:38      MisBP:0   MisRate:0.00%    MPKI:0.00
PC:2d7dc     Total:5      MisBP:0   MisRate:0.00%    MPKI:0.00
PC:137fc     Total:9833950      MisBP:0   MisRate:0.00%    MPKI:0.00
PC:326c0     Total:2      MisBP:0   MisRate:0.00%    MPKI:0.00
PC:2d7c4     Total:43      MisBP:0   MisRate:0.00%    MPKI:0.00
PC:10b6a     Total:1      MisBP:0   MisRate:0.00%    MPKI:0.00
PC:137e4     Total:2887096      MisBP:0   MisRate:0.00%    MPKI:0.00
PC:137e6     Total:2887051      MisBP:0   MisRate:0.00%    MPKI:0.00
PC:2d61a     Total:2      MisBP:0   MisRate:0.00%    MPKI:0.00
PC:136fa     Total:3180506      MisBP:0   MisRate:0.00%    MPKI:0.00
PC:2ef2c     Total:47      MisBP:0   MisRate:0.00%    MPKI:0.00
PC:2ca58     Total:8      MisBP:0   MisRate:0.00%    MPKI:0.00
PC:2d52e     Total:1      MisBP:0   MisRate:0.00%    MPKI:0.00
PC:137f8     Total:9869597      MisBP:0   MisRate:0.00%    MPKI:0.00
PC:2d62c     Total:12      MisBP:0   MisRate:0.00%    MPKI:0.00
PC:136f6     Total:3181639      MisBP:0   MisRate:0.00%    MPKI:0.00
PC:2ef28     Total:47      MisBP:0   MisRate:0.00%    MPKI:0.00
PC:2ca54     Total:8      MisBP:0   MisRate:0.00%    MPKI:0.00
PC:2d62e     Total:12      MisBP:0   MisRate:0.00%    MPKI:0.00
PC:2d9f4     Total:25      MisBP:0   MisRate:0.00%    MPKI:0.00
PC:3239c     Total:2      MisBP:0   MisRate:0.00%    MPKI:0.00
PC:13a14     Total:11      MisBP:0   MisRate:0.00%    MPKI:0.00
PC:2d546     Total:34      MisBP:0   MisRate:0.00%    MPKI:0.00
PC:2c888     Total:17      MisBP:0   MisRate:0.00%    MPKI:0.00
PC:2d9dc     Total:23      MisBP:0   MisRate:0.00%    MPKI:0.00
PC:32384     Total:2      MisBP:0   MisRate:0.00%    MPKI:0.00
PC:139fc     Total:330      MisBP:0   MisRate:0.00%    MPKI:0.00
PC:2d3f6     Total:2      MisBP:0   MisRate:0.00%    MPKI:0.00
PC:2d7da     Total:7      MisBP:0   MisRate:0.00%    MPKI:0.00
PC:137fa     Total:9844393      MisBP:0   MisRate:0.00%    MPKI:0.00
PC:2ef8a     Total:34      MisBP:0   MisRate:0.00%    MPKI:0.00
PC:2cab6     Total:2      MisBP:0   MisRate:0.00%    MPKI:0.00
PC:326c8     Total:2      MisBP:0   MisRate:0.00%    MPKI:0.00
PC:2da28     Total:25      MisBP:0   MisRate:0.00%    MPKI:0.00
PC:136fc     Total:3177346      MisBP:0   MisRate:0.00%    MPKI:0.00
PC:2d530     Total:1      MisBP:0   MisRate:0.00%    MPKI:0.00
PC:1370a     Total:3077953      MisBP:0   MisRate:0.00%    MPKI:0.00
PC:2c896     Total:14      MisBP:0   MisRate:0.00%    MPKI:0.00
PC:324a8     Total:4      MisBP:0   MisRate:0.00%    MPKI:0.00
PC:13a0a     Total:32      MisBP:0   MisRate:0.00%    MPKI:0.00
PC:2d7e8     Total:8      MisBP:0   MisRate:0.00%    MPKI:0.00
PC:2d63c     Total:10      MisBP:0   MisRate:0.00%    MPKI:0.00
PC:2d7d2     Total:7      MisBP:0   MisRate:0.00%    MPKI:0.00
PC:2d584     Total:43      MisBP:0   MisRate:0.00%    MPKI:0.00
PC:2ef82     Total:36      MisBP:0   MisRate:0.00%    MPKI:0.00
PC:2caae     Total:2      MisBP:0   MisRate:0.00%    MPKI:0.00
PC:147fc     Total:31      MisBP:0   MisRate:0.00%    MPKI:0.00
PC:13ba6     Total:17      MisBP:0   MisRate:0.00%    MPKI:0.00
PC:2ca8c     Total:27      MisBP:0   MisRate:0.00%    MPKI:0.00
PC:2d44c     Total:3      MisBP:0   MisRate:0.00%    MPKI:0.00
PC:2dcf4     Total:1      MisBP:0   MisRate:0.00%    MPKI:0.00
PC:2ef5e     Total:34      MisBP:0   MisRate:0.00%    MPKI:0.00
PC:2ca8a     Total:27      MisBP:0   MisRate:0.00%    MPKI:0.00
PC:3269c     Total:3      MisBP:0   MisRate:0.00%    MPKI:0.00
PC:2d44a     Total:3      MisBP:0   MisRate:0.00%    MPKI:0.00
PC:2d446     Total:3      MisBP:0   MisRate:0.00%    MPKI:0.00
PC:2dcee     Total:1      MisBP:0   MisRate:0.00%    MPKI:0.00
PC:2ef58     Total:34      MisBP:0   MisRate:0.00%    MPKI:0.00
PC:2ca84     Total:27      MisBP:0   MisRate:0.00%    MPKI:0.00
PC:2d444     Total:3      MisBP:0   MisRate:0.00%    MPKI:0.00
PC:13bac     Total:15      MisBP:0   MisRate:0.00%    MPKI:0.00
PC:13baa     Total:15      MisBP:0   MisRate:0.00%    MPKI:0.00
PC:2ef60     Total:34      MisBP:0   MisRate:0.00%    MPKI:0.00
PC:13ba4     Total:17      MisBP:0   MisRate:0.00%    MPKI:0.00
PC:13b9e     Total:4999      MisBP:0   MisRate:0.00%    MPKI:0.00
PC:13b9a     Total:2502      MisBP:0   MisRate:0.00%    MPKI:0.00
PC:13b96     Total:2502      MisBP:0   MisRate:0.00%    MPKI:0.00
PC:13b92     Total:2502      MisBP:0   MisRate:0.00%    MPKI:0.00
PC:13b90     Total:2502      MisBP:0   MisRate:0.00%    MPKI:0.00
PC:13b8c     Total:2502      MisBP:0   MisRate:0.00%    MPKI:0.00
PC:13b88     Total:2502      MisBP:0   MisRate:0.00%    MPKI:0.00
PC:13b84     Total:2502      MisBP:0   MisRate:0.00%    MPKI:0.00
PC:13b82     Total:11      MisBP:0   MisRate:0.00%    MPKI:0.00
PC:13b80     Total:11      MisBP:0   MisRate:0.00%    MPKI:0.00
PC:2c9ae     Total:2      MisBP:0   MisRate:0.00%    MPKI:0.00
PC:325c0     Total:24      MisBP:0   MisRate:0.00%    MPKI:0.00
PC:13b20     Total:11365      MisBP:0   MisRate:0.00%    MPKI:0.00
PC:2d470     Total:3      MisBP:0   MisRate:0.00%    MPKI:0.00
PC:2d7e4     Total:8      MisBP:0   MisRate:0.00%    MPKI:0.00
PC:2c478     Total:37      MisBP:0   MisRate:0.00%    MPKI:0.00
PC:2c474     Total:4      MisBP:0   MisRate:0.00%    MPKI:0.00
PC:13bae     Total:96      MisBP:0   MisRate:0.00%    MPKI:0.00
PC:2d5f0     Total:3      MisBP:0   MisRate:0.00%    MPKI:0.00
PC:2d5ee     Total:3      MisBP:0   MisRate:0.00%    MPKI:0.00
PC:2d486     Total:3      MisBP:0   MisRate:0.00%    MPKI:0.00
PC:2d482     Total:3      MisBP:0   MisRate:0.00%    MPKI:0.00
PC:2d480     Total:3      MisBP:0   MisRate:0.00%    MPKI:0.00
PC:2d47e     Total:3      MisBP:0   MisRate:0.00%    MPKI:0.00
PC:2d47c     Total:3      MisBP:0   MisRate:0.00%    MPKI:0.00
PC:2d47a     Total:3      MisBP:0   MisRate:0.00%    MPKI:0.00
PC:2d476     Total:3      MisBP:0   MisRate:0.00%    MPKI:0.00
PC:2d472     Total:3      MisBP:0   MisRate:0.00%    MPKI:0.00
PC:2c9aa     Total:2      MisBP:0   MisRate:0.00%    MPKI:0.00
PC:2d46c     Total:3      MisBP:0   MisRate:0.00%    MPKI:0.00
PC:2d468     Total:3      MisBP:0   MisRate:0.00%    MPKI:0.00
PC:2d464     Total:3      MisBP:0   MisRate:0.00%    MPKI:0.00
PC:2d462     Total:3      MisBP:0   MisRate:0.00%    MPKI:0.00
PC:2d45e     Total:3      MisBP:0   MisRate:0.00%    MPKI:0.00
PC:2d45c     Total:3      MisBP:0   MisRate:0.00%    MPKI:0.00
PC:2d45a     Total:3      MisBP:0   MisRate:0.00%    MPKI:0.00
PC:2d458     Total:3      MisBP:0   MisRate:0.00%    MPKI:0.00
PC:2dcfe     Total:1      MisBP:0   MisRate:0.00%    MPKI:0.00
PC:2d454     Total:3      MisBP:0   MisRate:0.00%    MPKI:0.00
PC:2d452     Total:3      MisBP:0   MisRate:0.00%    MPKI:0.00
PC:2d44e     Total:3      MisBP:0   MisRate:0.00%    MPKI:0.00
PC:2dcf6     Total:1      MisBP:0   MisRate:0.00%    MPKI:0.00
PC:2c9ca     Total:16      MisBP:0   MisRate:0.00%    MPKI:0.00
PC:10fec     Total:11      MisBP:0   MisRate:0.00%    MPKI:0.00
PC:13b50     Total:5201      MisBP:0   MisRate:0.00%    MPKI:0.00
PC:13b4e     Total:5202      MisBP:0   MisRate:0.00%    MPKI:0.00
PC:2c9d8     Total:16      MisBP:0   MisRate:0.00%    MPKI:0.00
PC:13b4c     Total:5209      MisBP:0   MisRate:0.00%    MPKI:0.00
PC:2c9d6     Total:16      MisBP:0   MisRate:0.00%    MPKI:0.00
PC:10fe6     Total:11      MisBP:0   MisRate:0.00%    MPKI:0.00
PC:325e8     Total:24      MisBP:0   MisRate:0.00%    MPKI:0.00
PC:13b4a     Total:5212      MisBP:0   MisRate:0.00%    MPKI:0.00
PC:13b48     Total:5214      MisBP:0   MisRate:0.00%    MPKI:0.00
PC:13b44     Total:5214      MisBP:0   MisRate:0.00%    MPKI:0.00
PC:2c9ce     Total:16      MisBP:0   MisRate:0.00%    MPKI:0.00
PC:325e0     Total:24      MisBP:0   MisRate:0.00%    MPKI:0.00
PC:13b42     Total:5214      MisBP:0   MisRate:0.00%    MPKI:0.00
PC:2c9dc     Total:16      MisBP:0   MisRate:0.00%    MPKI:0.00
PC:325dc     Total:24      MisBP:0   MisRate:0.00%    MPKI:0.00
PC:13b3e     Total:5507      MisBP:0   MisRate:0.00%    MPKI:0.00
PC:2c9c8     Total:16      MisBP:0   MisRate:0.00%    MPKI:0.00
PC:13b3c     Total:5507      MisBP:0   MisRate:0.00%    MPKI:0.00
PC:13b3a     Total:5381      MisBP:0   MisRate:0.00%    MPKI:0.00
PC:2c9c4     Total:16      MisBP:0   MisRate:0.00%    MPKI:0.00
PC:13b38     Total:5396      MisBP:0   MisRate:0.00%    MPKI:0.00
PC:2c9c2     Total:16      MisBP:0   MisRate:0.00%    MPKI:0.00
PC:325d4     Total:24      MisBP:0   MisRate:0.00%    MPKI:0.00
PC:13b36     Total:5398      MisBP:0   MisRate:0.00%    MPKI:0.00
PC:13b34     Total:5464      MisBP:0   MisRate:0.00%    MPKI:0.00
PC:2c9be     Total:16      MisBP:0   MisRate:0.00%    MPKI:0.00
PC:325d0     Total:24      MisBP:0   MisRate:0.00%    MPKI:0.00
PC:13b32     Total:5466      MisBP:0   MisRate:0.00%    MPKI:0.00
PC:2c994     Total:14      MisBP:0   MisRate:0.00%    MPKI:0.00
PC:325bc     Total:24      MisBP:0   MisRate:0.00%    MPKI:0.00
PC:13b1e     Total:11379      MisBP:0   MisRate:0.00%    MPKI:0.00
PC:13b1c     Total:11379      MisBP:0   MisRate:0.00%    MPKI:0.00
PC:2c9a4     Total:2      MisBP:0   MisRate:0.00%    MPKI:0.00
PC:13b18     Total:11388      MisBP:0   MisRate:0.00%    MPKI:0.00
PC:2c9a2     Total:2      MisBP:0   MisRate:0.00%    MPKI:0.00
PC:325b4     Total:24      MisBP:0   MisRate:0.00%    MPKI:0.00
PC:13b16     Total:11397      MisBP:0   MisRate:0.00%    MPKI:0.00
PC:13b14     Total:11813      MisBP:0   MisRate:0.00%    MPKI:0.00
PC:2c99e     Total:2      MisBP:0   MisRate:0.00%    MPKI:0.00
PC:325b0     Total:24      MisBP:0   MisRate:0.00%    MPKI:0.00
PC:13b12     Total:11816      MisBP:0   MisRate:0.00%    MPKI:0.00
PC:13b0e     Total:11874      MisBP:0   MisRate:0.00%    MPKI:0.00
PC:13b0c     Total:11874      MisBP:0   MisRate:0.00%    MPKI:0.00
PC:2d7ec     Total:8      MisBP:0   MisRate:0.00%    MPKI:0.00
PC:13b08     Total:11876      MisBP:0   MisRate:0.00%    MPKI:0.00
PC:13b06     Total:11877      MisBP:0   MisRate:0.00%    MPKI:0.00
PC:13b02     Total:11892      MisBP:0   MisRate:0.00%    MPKI:0.00
PC:2c98c     Total:14      MisBP:0   MisRate:0.00%    MPKI:0.00
PC:13b00     Total:11899      MisBP:0   MisRate:0.00%    MPKI:0.00
PC:13b5e     Total:5076      MisBP:0   MisRate:0.00%    MPKI:0.00
PC:13b5c     Total:5076      MisBP:0   MisRate:0.00%    MPKI:0.00
PC:2c9e4     Total:16      MisBP:0   MisRate:0.00%    MPKI:0.00
PC:10ff4     Total:11      MisBP:0   MisRate:0.00%    MPKI:0.00
PC:13b58     Total:5073      MisBP:0   MisRate:0.00%    MPKI:0.00
PC:2c9e0     Total:16      MisBP:0   MisRate:0.00%    MPKI:0.00
PC:10ff0     Total:11      MisBP:0   MisRate:0.00%    MPKI:0.00
PC:13b54     Total:5073      MisBP:0   MisRate:0.00%    MPKI:0.00
PC:2ef48     Total:34      MisBP:0   MisRate:0.00%    MPKI:0.00
PC:2ca80     Total:27      MisBP:0   MisRate:0.00%    MPKI:0.00
PC:2dce6     Total:1      MisBP:0   MisRate:0.00%    MPKI:0.00
PC:2ef50     Total:34      MisBP:0   MisRate:0.00%    MPKI:0.00
PC:2ca7c     Total:29      MisBP:0   MisRate:0.00%    MPKI:0.00
PC:2dce4     Total:1      MisBP:0   MisRate:0.00%    MPKI:0.00
PC:2ca7a     Total:29      MisBP:0   MisRate:0.00%    MPKI:0.00
PC:3268c     Total:22      MisBP:0   MisRate:0.00%    MPKI:0.00
PC:2dce2     Total:1      MisBP:0   MisRate:0.00%    MPKI:0.00
PC:2ef4c     Total:34      MisBP:0   MisRate:0.00%    MPKI:0.00
PC:2ca78     Total:29      MisBP:0   MisRate:0.00%    MPKI:0.00
PC:2dce0     Total:1      MisBP:0   MisRate:0.00%    MPKI:0.00
PC:2ef4a     Total:34      MisBP:0   MisRate:0.00%    MPKI:0.00
PC:32688     Total:22      MisBP:0   MisRate:0.00%    MPKI:0.00
PC:2dcde     Total:1      MisBP:0   MisRate:0.00%    MPKI:0.00
PC:2ef54     Total:34      MisBP:0   MisRate:0.00%    MPKI:0.00
PC:2ca74     Total:29      MisBP:0   MisRate:0.00%    MPKI:0.00
PC:2dcdc     Total:9      MisBP:0   MisRate:0.00%    MPKI:0.00
PC:2ca72     Total:29      MisBP:0   MisRate:0.00%    MPKI:0.00
PC:32684     Total:22      MisBP:0   MisRate:0.00%    MPKI:0.00
PC:2dcda     Total:9      MisBP:0   MisRate:0.00%    MPKI:0.00
PC:2ef44     Total:34      MisBP:0   MisRate:0.00%    MPKI:0.00
PC:2ca70     Total:11      MisBP:0   MisRate:0.00%    MPKI:0.00
PC:2dcd6     Total:9      MisBP:0   MisRate:0.00%    MPKI:0.00
PC:2ef40     Total:34      MisBP:0   MisRate:0.00%    MPKI:0.00
PC:2dcd4     Total:10      MisBP:0   MisRate:0.00%    MPKI:0.00
PC:2ef3e     Total:44      MisBP:0   MisRate:0.00%    MPKI:0.00
PC:3267c     Total:22      MisBP:0   MisRate:0.00%    MPKI:0.00
PC:2dcca     Total:10      MisBP:0   MisRate:0.00%    MPKI:0.00
PC:2ef34     Total:47      MisBP:0   MisRate:0.00%    MPKI:0.00
PC:2f49e     Total:19      MisBP:0   MisRate:0.00%    MPKI:0.00
PC:2c9de     Total:16      MisBP:0   MisRate:0.00%    MPKI:0.00
PC:10fee     Total:11      MisBP:0   MisRate:0.00%    MPKI:0.00
PC:325f0     Total:24      MisBP:0   MisRate:0.00%    MPKI:0.00
PC:2c9d2     Total:16      MisBP:0   MisRate:0.00%    MPKI:0.00
PC:10fe2     Total:11      MisBP:0   MisRate:0.00%    MPKI:0.00
PC:325e4     Total:24      MisBP:0   MisRate:0.00%    MPKI:0.00
PC:2cc54     Total:14      MisBP:0   MisRate:0.00%    MPKI:0.00
PC:2cc50     Total:14      MisBP:0   MisRate:0.00%    MPKI:0.00
PC:2cc4c     Total:14      MisBP:0   MisRate:0.00%    MPKI:0.00
PC:2c9b4     Total:2      MisBP:0   MisRate:0.00%    MPKI:0.00
PC:2c9a6     Total:2      MisBP:0   MisRate:0.00%    MPKI:0.00
PC:325b8     Total:24      MisBP:0   MisRate:0.00%    MPKI:0.00
PC:2c99c     Total:2      MisBP:0   MisRate:0.00%    MPKI:0.00
PC:2c990     Total:14      MisBP:0   MisRate:0.00%    MPKI:0.00
PC:2ca60     Total:8      MisBP:0   MisRate:0.00%    MPKI:0.00
PC:13aae     Total:3610      MisBP:0   MisRate:0.00%    MPKI:0.00
PC:2f44c     Total:2      MisBP:0   MisRate:0.00%    MPKI:0.00
PC:13a5c     Total:4296      MisBP:0   MisRate:0.00%    MPKI:0.00
PC:2f444     Total:22      MisBP:0   MisRate:0.00%    MPKI:0.00
PC:13a54     Total:4420      MisBP:0   MisRate:0.00%    MPKI:0.00
PC:2dcfa     Total:1      MisBP:0   MisRate:0.00%    MPKI:0.00
PC:2ef64     Total:34      MisBP:0   MisRate:0.00%    MPKI:0.00
PC:2ca90     Total:27      MisBP:0   MisRate:0.00%    MPKI:0.00
PC:2dcf2     Total:1      MisBP:0   MisRate:0.00%    MPKI:0.00
PC:2ef5c     Total:34      MisBP:0   MisRate:0.00%    MPKI:0.00
PC:2ca88     Total:27      MisBP:0   MisRate:0.00%    MPKI:0.00
PC:2dcec     Total:1      MisBP:0   MisRate:0.00%    MPKI:0.00
PC:2dcea     Total:1      MisBP:0   MisRate:0.00%    MPKI:0.00
PC:2d8e0     Total:15      MisBP:0   MisRate:0.00%    MPKI:0.00
PC:2d99a     Total:12      MisBP:0   MisRate:0.00%    MPKI:0.00
PC:2d998     Total:12      MisBP:0   MisRate:0.00%    MPKI:0.00
PC:2d994     Total:12      MisBP:0   MisRate:0.00%    MPKI:0.00
PC:2d990     Total:12      MisBP:0   MisRate:0.00%    MPKI:0.00
PC:2d98c     Total:12      MisBP:0   MisRate:0.00%    MPKI:0.00
PC:2d98a     Total:12      MisBP:0   MisRate:0.00%    MPKI:0.00
PC:2d988     Total:12      MisBP:0   MisRate:0.00%    MPKI:0.00
PC:2d986     Total:12      MisBP:0   MisRate:0.00%    MPKI:0.00
PC:2d8f4     Total:15      MisBP:0   MisRate:0.00%    MPKI:0.00
PC:2d8f0     Total:9      MisBP:0   MisRate:0.00%    MPKI:0.00
PC:2d8ec     Total:9      MisBP:0   MisRate:0.00%    MPKI:0.00
PC:2d8e6     Total:15      MisBP:0   MisRate:0.00%    MPKI:0.00
PC:2d8e4     Total:15      MisBP:0   MisRate:0.00%    MPKI:0.00
PC:2d8e2     Total:15      MisBP:0   MisRate:0.00%    MPKI:0.00
PC:2d99c     Total:12      MisBP:0   MisRate:0.00%    MPKI:0.00
PC:2d8de     Total:15      MisBP:0   MisRate:0.00%    MPKI:0.00
PC:2d8da     Total:15      MisBP:0   MisRate:0.00%    MPKI:0.00
PC:2d8d6     Total:15      MisBP:0   MisRate:0.00%    MPKI:0.00
PC:2d8d4     Total:15      MisBP:0   MisRate:0.00%    MPKI:0.00
PC:2d8d2     Total:15      MisBP:0   MisRate:0.00%    MPKI:0.00
PC:2d8ce     Total:15      MisBP:0   MisRate:0.00%    MPKI:0.00
PC:2d8cc     Total:15      MisBP:0   MisRate:0.00%    MPKI:0.00
PC:2d8ca     Total:15      MisBP:0   MisRate:0.00%    MPKI:0.00
PC:2d8c8     Total:15      MisBP:0   MisRate:0.00%    MPKI:0.00
PC:2d8c4     Total:15      MisBP:0   MisRate:0.00%    MPKI:0.00
PC:2d8c2     Total:15      MisBP:0   MisRate:0.00%    MPKI:0.00
PC:2d7d6     Total:7      MisBP:0   MisRate:0.00%    MPKI:0.00
PC:2d7cc     Total:21      MisBP:0   MisRate:0.00%    MPKI:0.00
PC:2d7c8     Total:64      MisBP:0   MisRate:0.00%    MPKI:0.00
PC:2ca52     Total:8      MisBP:0   MisRate:0.00%    MPKI:0.00
PC:2dcc8     Total:10      MisBP:0   MisRate:0.00%    MPKI:0.00
PC:32670     Total:22      MisBP:0   MisRate:0.00%    MPKI:0.00
PC:2dcc6     Total:10      MisBP:0   MisRate:0.00%    MPKI:0.00
PC:2ef30     Total:47      MisBP:0   MisRate:0.00%    MPKI:0.00
PC:2ca5c     Total:8      MisBP:0   MisRate:0.00%    MPKI:0.00
PC:2dcc4     Total:10      MisBP:0   MisRate:0.00%    MPKI:0.00
PC:2ef2e     Total:47      MisBP:0   MisRate:0.00%    MPKI:0.00
PC:2ca5a     Total:8      MisBP:0   MisRate:0.00%    MPKI:0.00
PC:3266c     Total:22      MisBP:0   MisRate:0.00%    MPKI:0.00
PC:2dcc0     Total:10      MisBP:0   MisRate:0.00%    MPKI:0.00
PC:2ef2a     Total:47      MisBP:0   MisRate:0.00%    MPKI:0.00
PC:32668     Total:22      MisBP:0   MisRate:0.00%    MPKI:0.00
PC:2dcbc     Total:10      MisBP:0   MisRate:0.00%    MPKI:0.00
PC:2ef26     Total:49      MisBP:0   MisRate:0.00%    MPKI:0.00
PC:325cc     Total:24      MisBP:0   MisRate:0.00%    MPKI:0.00
PC:32664     Total:22      MisBP:0   MisRate:0.00%    MPKI:0.00
PC:2dcba     Total:10      MisBP:0   MisRate:0.00%    MPKI:0.00
PC:2ca50     Total:8      MisBP:0   MisRate:0.00%    MPKI:0.00
PC:2dcb8     Total:10      MisBP:0   MisRate:0.00%    MPKI:0.00
PC:2ef22     Total:49      MisBP:0   MisRate:0.00%    MPKI:0.00
PC:32660     Total:22      MisBP:0   MisRate:0.00%    MPKI:0.00
PC:2dcb6     Total:10      MisBP:0   MisRate:0.00%    MPKI:0.00
PC:2ef20     Total:245      MisBP:0   MisRate:0.00%    MPKI:0.00
PC:2ca4c     Total:8      MisBP:0   MisRate:0.00%    MPKI:0.00
PC:2d9a4     Total:12      MisBP:0   MisRate:0.00%    MPKI:0.00
PC:2d9a2     Total:12      MisBP:0   MisRate:0.00%    MPKI:0.00
PC:2d9a0     Total:12      MisBP:0   MisRate:0.00%    MPKI:0.00
PC:2d99e     Total:12      MisBP:0   MisRate:0.00%    MPKI:0.00
PC:2d9b2     Total:18      MisBP:0   MisRate:0.00%    MPKI:0.00
PC:2d9d2     Total:1      MisBP:0   MisRate:0.00%    MPKI:0.00
PC:2c87c     Total:17      MisBP:0   MisRate:0.00%    MPKI:0.00
PC:2d9d0     Total:1      MisBP:0   MisRate:0.00%    MPKI:0.00
PC:2d9ce     Total:1      MisBP:0   MisRate:0.00%    MPKI:0.00
PC:2d9cc     Total:1      MisBP:0   MisRate:0.00%    MPKI:0.00
PC:2d9ca     Total:16      MisBP:0   MisRate:0.00%    MPKI:0.00
PC:2d9c6     Total:16      MisBP:0   MisRate:0.00%    MPKI:0.00
PC:2d9c4     Total:16      MisBP:0   MisRate:0.00%    MPKI:0.00
PC:2d9c2     Total:16      MisBP:0   MisRate:0.00%    MPKI:0.00
PC:2d9be     Total:16      MisBP:0   MisRate:0.00%    MPKI:0.00
PC:2d9bc     Total:18      MisBP:0   MisRate:0.00%    MPKI:0.00
PC:2d9b8     Total:18      MisBP:0   MisRate:0.00%    MPKI:0.00
PC:2d9b6     Total:18      MisBP:0   MisRate:0.00%    MPKI:0.00
PC:2d9b4     Total:18      MisBP:0   MisRate:0.00%    MPKI:0.00
PC:32490     Total:13      MisBP:0   MisRate:0.00%    MPKI:0.00
PC:2d9b0     Total:18      MisBP:0   MisRate:0.00%    MPKI:0.00
PC:2d9ae     Total:16      MisBP:0   MisRate:0.00%    MPKI:0.00
PC:2d9ac     Total:17      MisBP:0   MisRate:0.00%    MPKI:0.00
PC:2d9aa     Total:17      MisBP:0   MisRate:0.00%    MPKI:0.00
PC:2f47a     Total:2      MisBP:0   MisRate:0.00%    MPKI:0.00
PC:13a9c     Total:3717      MisBP:0   MisRate:0.00%    MPKI:0.00
PC:2da7c     Total:1      MisBP:0   MisRate:0.00%    MPKI:0.00
PC:32424     Total:2      MisBP:0   MisRate:0.00%    MPKI:0.00
PC:2da7a     Total:1      MisBP:0   MisRate:0.00%    MPKI:0.00
PC:2da78     Total:1      MisBP:0   MisRate:0.00%    MPKI:0.00
PC:32420     Total:4      MisBP:0   MisRate:0.00%    MPKI:0.00
PC:13a94     Total:3725      MisBP:0   MisRate:0.00%    MPKI:0.00
PC:2f484     Total:1      MisBP:0   MisRate:0.00%    MPKI:0.00
PC:2da74     Total:1      MisBP:0   MisRate:0.00%    MPKI:0.00
PC:2d422     Total:41      MisBP:0   MisRate:0.00%    MPKI:0.00
PC:2d8fa     Total:28      MisBP:0   MisRate:0.00%    MPKI:0.00
PC:13a3c     Total:4853      MisBP:0   MisRate:0.00%    MPKI:0.00
PC:2f42c     Total:24      MisBP:0   MisRate:0.00%    MPKI:0.00
PC:2cf58     Total:1      MisBP:0   MisRate:0.00%    MPKI:0.00
PC:2d428     Total:282      MisBP:0   MisRate:0.00%    MPKI:0.00
PC:2dcd0     Total:10      MisBP:0   MisRate:0.00%    MPKI:0.00
PC:2ef3a     Total:44      MisBP:0   MisRate:0.00%    MPKI:0.00
PC:2ca66     Total:8      MisBP:0   MisRate:0.00%    MPKI:0.00
PC:32678     Total:22      MisBP:0   MisRate:0.00%    MPKI:0.00
PC:2d426     Total:41      MisBP:0   MisRate:0.00%    MPKI:0.00
PC:2d424     Total:41      MisBP:0   MisRate:0.00%    MPKI:0.00
PC:2dccc     Total:10      MisBP:0   MisRate:0.00%    MPKI:0.00
PC:2ef36     Total:47      MisBP:0   MisRate:0.00%    MPKI:0.00
PC:32674     Total:22      MisBP:0   MisRate:0.00%    MPKI:0.00
PC:3241c     Total:4      MisBP:0   MisRate:0.00%    MPKI:0.00
PC:2d4a2     Total:1      MisBP:0   MisRate:0.00%    MPKI:0.00
PC:2d4a0     Total:1      MisBP:0   MisRate:0.00%    MPKI:0.00
PC:2d49c     Total:3      MisBP:0   MisRate:0.00%    MPKI:0.00
PC:2d49a     Total:3      MisBP:0   MisRate:0.00%    MPKI:0.00
PC:2d496     Total:3      MisBP:0   MisRate:0.00%    MPKI:0.00
PC:2d494     Total:3      MisBP:0   MisRate:0.00%    MPKI:0.00
PC:2d490     Total:46      MisBP:0   MisRate:0.00%    MPKI:0.00
PC:2d48c     Total:46      MisBP:0   MisRate:0.00%    MPKI:0.00
PC:2d488     Total:46      MisBP:0   MisRate:0.00%    MPKI:0.00
PC:2c882     Total:17      MisBP:0   MisRate:0.00%    MPKI:0.00
PC:2d9d6     Total:1      MisBP:0   MisRate:0.00%    MPKI:0.00
PC:2d9d4     Total:1      MisBP:0   MisRate:0.00%    MPKI:0.00
PC:2c87e     Total:170      MisBP:0   MisRate:0.00%    MPKI:0.00
PC:2da42     Total:5      MisBP:0   MisRate:0.00%    MPKI:0.00
PC:2f454     Total:2      MisBP:0   MisRate:0.00%    MPKI:0.00
PC:13a64     Total:4283      MisBP:0   MisRate:0.00%    MPKI:0.00
PC:2da56     Total:5      MisBP:0   MisRate:0.00%    MPKI:0.00
PC:2da54     Total:5      MisBP:0   MisRate:0.00%    MPKI:0.00
PC:323fc     Total:2      MisBP:0   MisRate:0.00%    MPKI:0.00
PC:2da50     Total:5      MisBP:0   MisRate:0.00%    MPKI:0.00
PC:323f8     Total:2      MisBP:0   MisRate:0.00%    MPKI:0.00
PC:13a6c     Total:4030      MisBP:0   MisRate:0.00%    MPKI:0.00
PC:2da4c     Total:5      MisBP:0   MisRate:0.00%    MPKI:0.00
PC:323f4     Total:4      MisBP:0   MisRate:0.00%    MPKI:0.00
PC:2da4a     Total:5      MisBP:0   MisRate:0.00%    MPKI:0.00
PC:2da48     Total:5      MisBP:0   MisRate:0.00%    MPKI:0.00
PC:2da44     Total:5      MisBP:0   MisRate:0.00%    MPKI:0.00
PC:13a62     Total:4283      MisBP:0   MisRate:0.00%    MPKI:0.00
PC:32400     Total:2      MisBP:0   MisRate:0.00%    MPKI:0.00
PC:2f43c     Total:23      MisBP:0   MisRate:0.00%    MPKI:0.00
PC:2cf68     Total:1      MisBP:0   MisRate:0.00%    MPKI:0.00
PC:13a5e     Total:4296      MisBP:0   MisRate:0.00%    MPKI:0.00
PC:2f438     Total:23      MisBP:0   MisRate:0.00%    MPKI:0.00
PC:2cf64     Total:1      MisBP:0   MisRate:0.00%    MPKI:0.00
PC:2da3a     Total:25      MisBP:0   MisRate:0.00%    MPKI:0.00
PC:13a56     Total:4298      MisBP:0   MisRate:0.00%    MPKI:0.00
PC:2da36     Total:24      MisBP:0   MisRate:0.00%    MPKI:0.00
PC:2f430     Total:48      MisBP:0   MisRate:0.00%    MPKI:0.00
PC:13a40     Total:4426      MisBP:0   MisRate:0.00%    MPKI:0.00
PC:2cf5c     Total:1      MisBP:0   MisRate:0.00%    MPKI:0.00
PC:2da32     Total:24      MisBP:0   MisRate:0.00%    MPKI:0.00
PC:2da2c     Total:25      MisBP:0   MisRate:0.00%    MPKI:0.00
PC:2da2a     Total:25      MisBP:0   MisRate:0.00%    MPKI:0.00
PC:2f460     Total:2      MisBP:0   MisRate:0.00%    MPKI:0.00
PC:2f470     Total:2      MisBP:0   MisRate:0.00%    MPKI:0.00
PC:13a80     Total:3838      MisBP:0   MisRate:0.00%    MPKI:0.00
PC:13a92     Total:3813      MisBP:0   MisRate:0.00%    MPKI:0.00
PC:2da72     Total:1      MisBP:0   MisRate:0.00%    MPKI:0.00
PC:2f46c     Total:2      MisBP:0   MisRate:0.00%    MPKI:0.00
PC:13a7c     Total:4014      MisBP:0   MisRate:0.00%    MPKI:0.00
PC:2da6e     Total:1      MisBP:0   MisRate:0.00%    MPKI:0.00
PC:2da6a     Total:1      MisBP:0   MisRate:0.00%    MPKI:0.00
PC:2f466     Total:2      MisBP:0   MisRate:0.00%    MPKI:0.00
PC:13a76     Total:4022      MisBP:0   MisRate:0.00%    MPKI:0.00
PC:13a88     Total:3821      MisBP:0   MisRate:0.00%    MPKI:0.00
PC:2da68     Total:1      MisBP:0   MisRate:0.00%    MPKI:0.00
PC:2da64     Total:1      MisBP:0   MisRate:0.00%    MPKI:0.00
PC:3240c     Total:2      MisBP:0   MisRate:0.00%    MPKI:0.00
PC:2d8fc     Total:28      MisBP:0   MisRate:0.00%    MPKI:0.00
PC:13a70     Total:4023      MisBP:0   MisRate:0.00%    MPKI:0.00
PC:2da62     Total:1      MisBP:0   MisRate:0.00%    MPKI:0.00
PC:2f45e     Total:2      MisBP:0   MisRate:0.00%    MPKI:0.00
PC:2da60     Total:1      MisBP:0   MisRate:0.00%    MPKI:0.00
PC:32408     Total:2      MisBP:0   MisRate:0.00%    MPKI:0.00
PC:2da5e     Total:5      MisBP:0   MisRate:0.00%    MPKI:0.00
PC:2f45a     Total:2      MisBP:0   MisRate:0.00%    MPKI:0.00
PC:32404     Total:2      MisBP:0   MisRate:0.00%    MPKI:0.00
PC:2f458     Total:2      MisBP:0   MisRate:0.00%    MPKI:0.00
PC:13a68     Total:4283      MisBP:0   MisRate:0.00%    MPKI:0.00
PC:2da5a     Total:5      MisBP:0   MisRate:0.00%    MPKI:0.00
PC:13a78     Total:4015      MisBP:0   MisRate:0.00%    MPKI:0.00
PC:2da58     Total:5      MisBP:0   MisRate:0.00%    MPKI:0.00
PC:2f4a8     Total:1      MisBP:0   MisRate:0.00%    MPKI:0.00
PC:13aea     Total:13327      MisBP:0   MisRate:0.00%    MPKI:0.00
PC:13ae6     Total:13465      MisBP:0   MisRate:0.00%    MPKI:0.00
PC:13ae4     Total:13500      MisBP:0   MisRate:0.00%    MPKI:0.00
PC:13ae2     Total:13500      MisBP:0   MisRate:0.00%    MPKI:0.00
PC:13ade     Total:13501      MisBP:0   MisRate:0.00%    MPKI:0.00
PC:13ada     Total:49649      MisBP:0   MisRate:0.00%    MPKI:0.00
PC:13ad6     Total:60253      MisBP:0   MisRate:0.00%    MPKI:0.00
PC:13ad4     Total:62475      MisBP:0   MisRate:0.00%    MPKI:0.00
PC:2f4b0     Total:6      MisBP:0   MisRate:0.00%    MPKI:0.00
PC:2f4ae     Total:1      MisBP:0   MisRate:0.00%    MPKI:0.00
PC:13abe     Total:13370      MisBP:0   MisRate:0.00%    MPKI:0.00
PC:13ad0     Total:63028      MisBP:0   MisRate:0.00%    MPKI:0.00
PC:13ace     Total:63040      MisBP:0   MisRate:0.00%    MPKI:0.00
PC:2f4aa     Total:2      MisBP:0   MisRate:0.00%    MPKI:0.00
PC:13aee     Total:13195      MisBP:0   MisRate:0.00%    MPKI:0.00
PC:13ab8     Total:14302      MisBP:0   MisRate:0.00%    MPKI:0.00
PC:13aca     Total:50478      MisBP:0   MisRate:0.00%    MPKI:0.00
PC:13ac8     Total:50489      MisBP:0   MisRate:0.00%    MPKI:0.00
PC:2f4a4     Total:19      MisBP:0   MisRate:0.00%    MPKI:0.00
PC:13ab4     Total:14302      MisBP:0   MisRate:0.00%    MPKI:0.00
PC:13ac6     Total:50495      MisBP:0   MisRate:0.00%    MPKI:0.00
PC:2f4a2     Total:19      MisBP:0   MisRate:0.00%    MPKI:0.00
PC:13ab2     Total:14302      MisBP:0   MisRate:0.00%    MPKI:0.00
PC:13ac4     Total:13368      MisBP:0   MisRate:0.00%    MPKI:0.00
PC:2f4a0     Total:19      MisBP:0   MisRate:0.00%    MPKI:0.00
PC:13ab0     Total:3610      MisBP:0   MisRate:0.00%    MPKI:0.00
PC:13ac2     Total:13368      MisBP:0   MisRate:0.00%    MPKI:0.00
PC:2f49a     Total:38      MisBP:0   MisRate:0.00%    MPKI:0.00
PC:13aaa     Total:3691      MisBP:0   MisRate:0.00%    MPKI:0.00
PC:13b72     Total:18      MisBP:0   MisRate:0.00%    MPKI:0.00
PC:13b2e     Total:16340      MisBP:0   MisRate:0.00%    MPKI:0.00
PC:2c9b8     Total:16      MisBP:0   MisRate:0.00%    MPKI:0.00
PC:13b2c     Total:16342      MisBP:0   MisRate:0.00%    MPKI:0.00
PC:2c9b6     Total:16      MisBP:0   MisRate:0.00%    MPKI:0.00
PC:325c8     Total:24      MisBP:0   MisRate:0.00%    MPKI:0.00
PC:13b2a     Total:16336      MisBP:0   MisRate:0.00%    MPKI:0.00
PC:2c9b2     Total:2      MisBP:0   MisRate:0.00%    MPKI:0.00
PC:325c4     Total:24      MisBP:0   MisRate:0.00%    MPKI:0.00
PC:13b26     Total:16408      MisBP:0   MisRate:0.00%    MPKI:0.00
PC:13b24     Total:16408      MisBP:0   MisRate:0.00%    MPKI:0.00
PC:13b7e     Total:12      MisBP:0   MisRate:0.00%    MPKI:0.00
PC:13b7c     Total:12      MisBP:0   MisRate:0.00%    MPKI:0.00
PC:13b7a     Total:12      MisBP:0   MisRate:0.00%    MPKI:0.00
PC:13b76     Total:12      MisBP:0   MisRate:0.00%    MPKI:0.00
PC:13abc     Total:14301      MisBP:0   MisRate:0.00%    MPKI:0.00
PC:13b70     Total:18      MisBP:0   MisRate:0.00%    MPKI:0.00
PC:13b6c     Total:19      MisBP:0   MisRate:0.00%    MPKI:0.00
PC:13b68     Total:19      MisBP:0   MisRate:0.00%    MPKI:0.00
PC:13b66     Total:13748      MisBP:0   MisRate:0.00%    MPKI:0.00
PC:13b64     Total:13748      MisBP:0   MisRate:0.00%    MPKI:0.00
PC:13b62     Total:13755      MisBP:0   MisRate:0.00%    MPKI:0.00
PC:13b60     Total:13755      MisBP:0   MisRate:0.00%    MPKI:0.00
PC:13afe     Total:12641      MisBP:0   MisRate:0.00%    MPKI:0.00
PC:13afa     Total:12676      MisBP:0   MisRate:0.00%    MPKI:0.00
PC:13af8     Total:12683      MisBP:0   MisRate:0.00%    MPKI:0.00
PC:13af6     Total:12683      MisBP:0   MisRate:0.00%    MPKI:0.00
PC:13af4     Total:13168      MisBP:0   MisRate:0.00%    MPKI:0.00
PC:13af0     Total:13168      MisBP:0   MisRate:0.00%    MPKI:0.00
PC:2d934     Total:1      MisBP:0   MisRate:0.00%    MPKI:0.00
PC:13a4e     Total:4421      MisBP:0   MisRate:0.00%    MPKI:0.00
PC:2cf6a     Total:1      MisBP:0   MisRate:0.00%    MPKI:0.00
PC:2f43a     Total:23      MisBP:0   MisRate:0.00%    MPKI:0.00
PC:13a4a     Total:4421      MisBP:0   MisRate:0.00%    MPKI:0.00
PC:2f436     Total:23      MisBP:0   MisRate:0.00%    MPKI:0.00
PC:13a46     Total:4424      MisBP:0   MisRate:0.00%    MPKI:0.00
PC:2cf62     Total:1      MisBP:0   MisRate:0.00%    MPKI:0.00
PC:13a58     Total:4296      MisBP:0   MisRate:0.00%    MPKI:0.00
PC:2f448     Total:22      MisBP:0   MisRate:0.00%    MPKI:0.00
PC:2f432     Total:23      MisBP:0   MisRate:0.00%    MPKI:0.00
PC:13a42     Total:4426      MisBP:0   MisRate:0.00%    MPKI:0.00
PC:13a50     Total:4421      MisBP:0   MisRate:0.00%    MPKI:0.00
PC:2f440     Total:22      MisBP:0   MisRate:0.00%    MPKI:0.00
PC:2d938     Total:1      MisBP:0   MisRate:0.00%    MPKI:0.00
PC:2f462     Total:2      MisBP:0   MisRate:0.00%    MPKI:0.00
PC:2d930     Total:1      MisBP:0   MisRate:0.00%    MPKI:0.00
PC:2d92c     Total:1      MisBP:0   MisRate:0.00%    MPKI:0.00
PC:2d928     Total:1      MisBP:0   MisRate:0.00%    MPKI:0.00
PC:2d924     Total:1      MisBP:0   MisRate:0.00%    MPKI:0.00
PC:2d920     Total:1      MisBP:0   MisRate:0.00%    MPKI:0.00
PC:2d91c     Total:1      MisBP:0   MisRate:0.00%    MPKI:0.00
PC:2d918     Total:1      MisBP:0   MisRate:0.00%    MPKI:0.00
PC:2d914     Total:1      MisBP:0   MisRate:0.00%    MPKI:0.00
PC:2d910     Total:1      MisBP:0   MisRate:0.00%    MPKI:0.00
PC:2d90e     Total:26      MisBP:0   MisRate:0.00%    MPKI:0.00
PC:2d90a     Total:26      MisBP:0   MisRate:0.00%    MPKI:0.00
PC:2d906     Total:26      MisBP:0   MisRate:0.00%    MPKI:0.00
PC:2d902     Total:26      MisBP:0   MisRate:0.00%    MPKI:0.00
PC:2d8fe     Total:26      MisBP:0   MisRate:0.00%    MPKI:0.00
PC:13a84     Total:3838      MisBP:0   MisRate:0.00%    MPKI:0.00
PC:2f496     Total:19      MisBP:0   MisRate:0.00%    MPKI:0.00
PC:13aa6     Total:3717      MisBP:0   MisRate:0.00%    MPKI:0.00
PC:2f492     Total:19      MisBP:0   MisRate:0.00%    MPKI:0.00
PC:13aa2     Total:3717      MisBP:0   MisRate:0.00%    MPKI:0.00
PC:2f490     Total:19      MisBP:0   MisRate:0.00%    MPKI:0.00
PC:13aa0     Total:3717      MisBP:0   MisRate:0.00%    MPKI:0.00
PC:2f48e     Total:19      MisBP:0   MisRate:0.00%    MPKI:0.00
PC:2f48a     Total:19      MisBP:0   MisRate:0.00%    MPKI:0.00
PC:13aac     Total:3613      MisBP:0   MisRate:0.00%    MPKI:0.00
PC:2f488     Total:19      MisBP:0   MisRate:0.00%    MPKI:0.00
PC:13a98     Total:3717      MisBP:0   MisRate:0.00%    MPKI:0.00
PC:2f47e     Total:2      MisBP:0   MisRate:0.00%    MPKI:0.00
PC:13a8e     Total:3821      MisBP:0   MisRate:0.00%    MPKI:0.00
PC:2f474     Total:2      MisBP:0   MisRate:0.00%    MPKI:0.00
PC:10180     Total:2      MisBP:0   MisRate:0.00%    MPKI:0.00
PC:13a96     Total:3717      MisBP:0   MisRate:0.00%    MPKI:0.00
PC:2f46e     Total:2      MisBP:0   MisRate:0.00%    MPKI:0.00
PC:13a90     Total:3821      MisBP:0   MisRate:0.00%    MPKI:0.00
PC:2f480     Total:2      MisBP:0   MisRate:0.00%    MPKI:0.00
PC:2f46a     Total:2      MisBP:0   MisRate:0.00%    MPKI:0.00
PC:13a8c     Total:3821      MisBP:0   MisRate:0.00%    MPKI:0.00
PC:2f464     Total:2      MisBP:0   MisRate:0.00%    MPKI:0.00
PC:13a74     Total:4023      MisBP:0   MisRate:0.00%    MPKI:0.00
PC:13a86     Total:3821      MisBP:0   MisRate:0.00%    MPKI:0.00
PC:2f476     Total:2      MisBP:0   MisRate:0.00%    MPKI:0.00
PC:2f450     Total:2      MisBP:0   MisRate:0.00%    MPKI:0.00
PC:13a60     Total:4283      MisBP:0   MisRate:0.00%    MPKI:0.00
PC:13a72     Total:4023      MisBP:0   MisRate:0.00%    MPKI:0.00
PC:14894     Total:34      MisBP:0   MisRate:0.00%    MPKI:0.00
PC:32734     Total:2      MisBP:0   MisRate:0.00%    MPKI:0.00
PC:14874     Total:29      MisBP:0   MisRate:0.00%    MPKI:0.00
PC:32738     Total:2      MisBP:0   MisRate:0.00%    MPKI:0.00
PC:14878     Total:29      MisBP:0   MisRate:0.00%    MPKI:0.00
PC:3273c     Total:2      MisBP:0   MisRate:0.00%    MPKI:0.00
PC:1487a     Total:29      MisBP:0   MisRate:0.00%    MPKI:0.00
PC:1487e     Total:29      MisBP:0   MisRate:0.00%    MPKI:0.00
PC:14882     Total:29      MisBP:0   MisRate:0.00%    MPKI:0.00
PC:14886     Total:29      MisBP:0   MisRate:0.00%    MPKI:0.00
PC:14888     Total:190      MisBP:0   MisRate:0.00%    MPKI:0.00
PC:3274c     Total:2      MisBP:0   MisRate:0.00%    MPKI:0.00
PC:1488c     Total:34      MisBP:0   MisRate:0.00%    MPKI:0.00
PC:32750     Total:2      MisBP:0   MisRate:0.00%    MPKI:0.00
PC:14890     Total:34      MisBP:0   MisRate:0.00%    MPKI:0.00
PC:32754     Total:2      MisBP:0   MisRate:0.00%    MPKI:0.00
PC:14870     Total:29      MisBP:0   MisRate:0.00%    MPKI:0.00
PC:32758     Total:2      MisBP:0   MisRate:0.00%    MPKI:0.00
PC:14898     Total:34      MisBP:0   MisRate:0.00%    MPKI:0.00
PC:3275c     Total:2      MisBP:0   MisRate:0.00%    MPKI:0.00
PC:1489c     Total:34      MisBP:0   MisRate:0.00%    MPKI:0.00
PC:32760     Total:2      MisBP:0   MisRate:0.00%    MPKI:0.00
PC:10eb8     Total:8      MisBP:0   MisRate:0.00%    MPKI:0.00
PC:10ec4     Total:6      MisBP:0   MisRate:0.00%    MPKI:0.00
PC:10ed2     Total:6      MisBP:0   MisRate:0.00%    MPKI:0.00
PC:10ee6     Total:12      MisBP:0   MisRate:0.00%    MPKI:0.00
PC:10efa     Total:11      MisBP:0   MisRate:0.00%    MPKI:0.00
PC:10fe4     Total:11      MisBP:0   MisRate:0.00%    MPKI:0.00
PC:10fea     Total:11      MisBP:0   MisRate:0.00%    MPKI:0.00
PC:325ec     Total:24      MisBP:0   MisRate:0.00%    MPKI:0.00
PC:10ff2     Total:11      MisBP:0   MisRate:0.00%    MPKI:0.00
PC:14852     Total:29      MisBP:0   MisRate:0.00%    MPKI:0.00
PC:14832     Total:29      MisBP:0   MisRate:0.00%    MPKI:0.00
PC:2cae4     Total:1      MisBP:0   MisRate:0.00%    MPKI:0.00
PC:14836     Total:29      MisBP:0   MisRate:0.00%    MPKI:0.00
PC:2cae8     Total:1      MisBP:0   MisRate:0.00%    MPKI:0.00
PC:1483a     Total:29      MisBP:0   MisRate:0.00%    MPKI:0.00
PC:1483e     Total:29      MisBP:0   MisRate:0.00%    MPKI:0.00
PC:2caf0     Total:1      MisBP:0   MisRate:0.00%    MPKI:0.00
PC:14842     Total:29      MisBP:0   MisRate:0.00%    MPKI:0.00
PC:14844     Total:29      MisBP:0   MisRate:0.00%    MPKI:0.00
PC:32708     Total:2      MisBP:0   MisRate:0.00%    MPKI:0.00
PC:2caf6     Total:1      MisBP:0   MisRate:0.00%    MPKI:0.00
PC:14846     Total:29      MisBP:0   MisRate:0.00%    MPKI:0.00
PC:1484a     Total:29      MisBP:0   MisRate:0.00%    MPKI:0.00
PC:1484e     Total:29      MisBP:0   MisRate:0.00%    MPKI:0.00
PC:325f4     Total:24      MisBP:0   MisRate:0.00%    MPKI:0.00
PC:14854     Total:29      MisBP:0   MisRate:0.00%    MPKI:0.00
PC:32718     Total:2      MisBP:0   MisRate:0.00%    MPKI:0.00
PC:14858     Total:29      MisBP:0   MisRate:0.00%    MPKI:0.00
PC:3271c     Total:2      MisBP:0   MisRate:0.00%    MPKI:0.00
PC:1485c     Total:29      MisBP:0   MisRate:0.00%    MPKI:0.00
PC:32720     Total:2      MisBP:0   MisRate:0.00%    MPKI:0.00
PC:14860     Total:29      MisBP:0   MisRate:0.00%    MPKI:0.00
PC:32724     Total:2      MisBP:0   MisRate:0.00%    MPKI:0.00
PC:14864     Total:29      MisBP:0   MisRate:0.00%    MPKI:0.00
PC:32728     Total:2      MisBP:0   MisRate:0.00%    MPKI:0.00
PC:14868     Total:29      MisBP:0   MisRate:0.00%    MPKI:0.00
PC:3272c     Total:2      MisBP:0   MisRate:0.00%    MPKI:0.00
PC:1486c     Total:29      MisBP:0   MisRate:0.00%    MPKI:0.00
PC:32730     Total:2      MisBP:0   MisRate:0.00%    MPKI:0.00
PC:13922     Total:11      MisBP:0   MisRate:0.00%    MPKI:0.00
PC:138fc     Total:25      MisBP:0   MisRate:0.00%    MPKI:0.00
PC:13900     Total:21      MisBP:0   MisRate:0.00%    MPKI:0.00
PC:13902     Total:1759      MisBP:0   MisRate:0.00%    MPKI:0.00
PC:13906     Total:1759      MisBP:0   MisRate:0.00%    MPKI:0.00
PC:13908     Total:1759      MisBP:0   MisRate:0.00%    MPKI:0.00
PC:1390c     Total:11      MisBP:0   MisRate:0.00%    MPKI:0.00
PC:1390e     Total:11      MisBP:0   MisRate:0.00%    MPKI:0.00
PC:13912     Total:11      MisBP:0   MisRate:0.00%    MPKI:0.00
PC:13914     Total:11      MisBP:0   MisRate:0.00%    MPKI:0.00
PC:13916     Total:11      MisBP:0   MisRate:0.00%    MPKI:0.00
PC:13918     Total:11      MisBP:0   MisRate:0.00%    MPKI:0.00
PC:1391a     Total:11      MisBP:0   MisRate:0.00%    MPKI:0.00
PC:1391c     Total:11      MisBP:0   MisRate:0.00%    MPKI:0.00
PC:13920     Total:11      MisBP:0   MisRate:0.00%    MPKI:0.00
PC:2e0a6     Total:2      MisBP:0   MisRate:0.00%    MPKI:0.00
PC:101bc     Total:1      MisBP:0   MisRate:0.00%    MPKI:0.00
PC:2e0a8     Total:2      MisBP:0   MisRate:0.00%    MPKI:0.00
PC:13926     Total:11      MisBP:0   MisRate:0.00%    MPKI:0.00
PC:1392a     Total:11      MisBP:0   MisRate:0.00%    MPKI:0.00
PC:2e0b0     Total:2      MisBP:0   MisRate:0.00%    MPKI:0.00
PC:1392e     Total:11      MisBP:0   MisRate:0.00%    MPKI:0.00
PC:2e0b4     Total:2      MisBP:0   MisRate:0.00%    MPKI:0.00
PC:13930     Total:11      MisBP:0   MisRate:0.00%    MPKI:0.00
PC:2e0b6     Total:2      MisBP:0   MisRate:0.00%    MPKI:0.00
PC:13932     Total:11      MisBP:0   MisRate:0.00%    MPKI:0.00
PC:2e0b8     Total:2      MisBP:0   MisRate:0.00%    MPKI:0.00
PC:13936     Total:11      MisBP:0   MisRate:0.00%    MPKI:0.00
PC:1393a     Total:11      MisBP:0   MisRate:0.00%    MPKI:0.00
PC:2e0c0     Total:2      MisBP:0   MisRate:0.00%    MPKI:0.00
PC:1393e     Total:17      MisBP:0   MisRate:0.00%    MPKI:0.00
PC:13c36     Total:26      MisBP:0   MisRate:0.00%    MPKI:0.00
PC:13c08     Total:77      MisBP:0   MisRate:0.00%    MPKI:0.00
PC:13c0a     Total:11      MisBP:0   MisRate:0.00%    MPKI:0.00
PC:13c0c     Total:15      MisBP:0   MisRate:0.00%    MPKI:0.00
PC:13c0e     Total:10      MisBP:0   MisRate:0.00%    MPKI:0.00
PC:13c10     Total:10      MisBP:0   MisRate:0.00%    MPKI:0.00
PC:13c14     Total:10      MisBP:0   MisRate:0.00%    MPKI:0.00
PC:13c18     Total:10      MisBP:0   MisRate:0.00%    MPKI:0.00
PC:13c1a     Total:10      MisBP:0   MisRate:0.00%    MPKI:0.00
PC:13c1e     Total:10      MisBP:0   MisRate:0.00%    MPKI:0.00
PC:13c22     Total:10      MisBP:0   MisRate:0.00%    MPKI:0.00
PC:13c26     Total:10      MisBP:0   MisRate:0.00%    MPKI:0.00
PC:13c2a     Total:3224      MisBP:0   MisRate:0.00%    MPKI:0.00
PC:13c2e     Total:3224      MisBP:0   MisRate:0.00%    MPKI:0.00
PC:13c32     Total:1612      MisBP:0   MisRate:0.00%    MPKI:0.00
PC:2cae0     Total:1      MisBP:0   MisRate:0.00%    MPKI:0.00
PC:13c38     Total:26      MisBP:0   MisRate:0.00%    MPKI:0.00
PC:13c3a     Total:26      MisBP:0   MisRate:0.00%    MPKI:0.00
PC:13c3c     Total:26      MisBP:0   MisRate:0.00%    MPKI:0.00
PC:13c3e     Total:26      MisBP:0   MisRate:0.00%    MPKI:0.00
PC:13c40     Total:26      MisBP:0   MisRate:0.00%    MPKI:0.00
PC:13c42     Total:26      MisBP:0   MisRate:0.00%    MPKI:0.00
PC:13c44     Total:26      MisBP:0   MisRate:0.00%    MPKI:0.00
PC:13c46     Total:26      MisBP:0   MisRate:0.00%    MPKI:0.00
PC:138f0     Total:233      MisBP:0   MisRate:0.00%    MPKI:0.00
PC:138f4     Total:25      MisBP:0   MisRate:0.00%    MPKI:0.00
PC:138f6     Total:25      MisBP:0   MisRate:0.00%    MPKI:0.00
PC:101b8     Total:7      MisBP:0   MisRate:0.00%    MPKI:0.00
PC:138f8     Total:25      MisBP:0   MisRate:0.00%    MPKI:0.00
PC:138fa     Total:25      MisBP:0   MisRate:0.00%    MPKI:0.00
PC:2c8d4     Total:1      MisBP:0   MisRate:0.00%    MPKI:0.00
PC:3260c     Total:24      MisBP:0   MisRate:0.00%    MPKI:0.00
PC:11012     Total:13      MisBP:0   MisRate:0.00%    MPKI:0.00
PC:32614     Total:24      MisBP:0   MisRate:0.00%    MPKI:0.00
PC:1101c     Total:13      MisBP:0   MisRate:0.00%    MPKI:0.00
PC:2c8c0     Total:1      MisBP:0   MisRate:0.00%    MPKI:0.00
PC:10ed0     Total:6      MisBP:0   MisRate:0.00%    MPKI:0.00
PC:2c8c4     Total:1      MisBP:0   MisRate:0.00%    MPKI:0.00
PC:2c8c6     Total:1      MisBP:0   MisRate:0.00%    MPKI:0.00
PC:10ed6     Total:12      MisBP:0   MisRate:0.00%    MPKI:0.00
PC:2c8ca     Total:1      MisBP:0   MisRate:0.00%    MPKI:0.00
PC:10eda     Total:12      MisBP:0   MisRate:0.00%    MPKI:0.00
PC:2c8ce     Total:1      MisBP:0   MisRate:0.00%    MPKI:0.00
PC:10ede     Total:12      MisBP:0   MisRate:0.00%    MPKI:0.00
PC:2c8d2     Total:1      MisBP:0   MisRate:0.00%    MPKI:0.00
PC:10ee2     Total:12      MisBP:0   MisRate:0.00%    MPKI:0.00
PC:1100a     Total:13      MisBP:0   MisRate:0.00%    MPKI:0.00
PC:2c8d8     Total:1      MisBP:0   MisRate:0.00%    MPKI:0.00
PC:2c8da     Total:1      MisBP:0   MisRate:0.00%    MPKI:0.00
PC:10eea     Total:12      MisBP:0   MisRate:0.00%    MPKI:0.00
PC:2c8de     Total:1      MisBP:0   MisRate:0.00%    MPKI:0.00
PC:10eee     Total:12      MisBP:0   MisRate:0.00%    MPKI:0.00
PC:2c8e0     Total:1      MisBP:0   MisRate:0.00%    MPKI:0.00
PC:10ef0     Total:12      MisBP:0   MisRate:0.00%    MPKI:0.00
PC:2c8e4     Total:1      MisBP:0   MisRate:0.00%    MPKI:0.00
PC:10ef4     Total:12      MisBP:0   MisRate:0.00%    MPKI:0.00
PC:2c8e6     Total:1      MisBP:0   MisRate:0.00%    MPKI:0.00
PC:2c8e8     Total:1      MisBP:0   MisRate:0.00%    MPKI:0.00
PC:10ef8     Total:11      MisBP:0   MisRate:0.00%    MPKI:0.00
PC:2c8ec     Total:1      MisBP:0   MisRate:0.00%    MPKI:0.00
PC:2c8ee     Total:1      MisBP:0   MisRate:0.00%    MPKI:0.00
PC:147f0     Total:31      MisBP:0   MisRate:0.00%    MPKI:0.00
PC:2ca30     Total:1      MisBP:0   MisRate:0.00%    MPKI:0.00
PC:2ca32     Total:1      MisBP:0   MisRate:0.00%    MPKI:0.00
PC:32644     Total:22      MisBP:0   MisRate:0.00%    MPKI:0.00
PC:2ca34     Total:15      MisBP:0   MisRate:0.00%    MPKI:0.00
PC:2ca36     Total:15      MisBP:0   MisRate:0.00%    MPKI:0.00
PC:32648     Total:22      MisBP:0   MisRate:0.00%    MPKI:0.00
PC:2ca38     Total:15      MisBP:0   MisRate:0.00%    MPKI:0.00
PC:2ca3c     Total:15      MisBP:0   MisRate:0.00%    MPKI:0.00
PC:2ca40     Total:14      MisBP:0   MisRate:0.00%    MPKI:0.00
PC:2ca42     Total:14      MisBP:0   MisRate:0.00%    MPKI:0.00
PC:32654     Total:22      MisBP:0   MisRate:0.00%    MPKI:0.00
PC:2cdb4     Total:14      MisBP:0   MisRate:0.00%    MPKI:0.00
PC:2ca9e     Total:27      MisBP:0   MisRate:0.00%    MPKI:0.00
PC:326b0     Total:3      MisBP:0   MisRate:0.00%    MPKI:0.00
PC:10efe     Total:2      MisBP:0   MisRate:0.00%    MPKI:0.00
PC:326b4     Total:3      MisBP:0   MisRate:0.00%    MPKI:0.00
PC:2caa6     Total:2      MisBP:0   MisRate:0.00%    MPKI:0.00
PC:326b8     Total:3      MisBP:0   MisRate:0.00%    MPKI:0.00
PC:2cab2     Total:2      MisBP:0   MisRate:0.00%    MPKI:0.00
PC:326c4     Total:2      MisBP:0   MisRate:0.00%    MPKI:0.00
PC:2cd3e     Total:32      MisBP:0   MisRate:0.00%    MPKI:0.00
PC:2cd5a     Total:2      MisBP:0   MisRate:0.00%    MPKI:0.00
PC:2cd5e     Total:2      MisBP:0   MisRate:0.00%    MPKI:0.00
PC:2cd68     Total:2      MisBP:0   MisRate:0.00%    MPKI:0.00
PC:2cd6c     Total:2      MisBP:0   MisRate:0.00%    MPKI:0.00
PC:2c986     Total:27      MisBP:0   MisRate:0.00%    MPKI:0.00
PC:32598     Total:24      MisBP:0   MisRate:0.00%    MPKI:0.00
PC:2c988     Total:189      MisBP:0   MisRate:0.00%    MPKI:0.00
PC:13c7e     Total:4      MisBP:0   MisRate:0.00%    MPKI:0.00
PC:32798     Total:2      MisBP:0   MisRate:0.00%    MPKI:0.00
PC:10ad6     Total:9      MisBP:0   MisRate:0.00%    MPKI:0.00
PC:10ae2     Total:11      MisBP:0   MisRate:0.00%    MPKI:0.00
PC:10afa     Total:11      MisBP:0   MisRate:0.00%    MPKI:0.00
PC:10b08     Total:11      MisBP:0   MisRate:0.00%    MPKI:0.00
PC:10b1e     Total:10      MisBP:0   MisRate:0.00%    MPKI:0.00
PC:10b24     Total:10      MisBP:0   MisRate:0.00%    MPKI:0.00
PC:10b2c     Total:10      MisBP:0   MisRate:0.00%    MPKI:0.00
PC:148cc     Total:160      MisBP:0   MisRate:0.00%    MPKI:0.00
PC:32790     Total:2      MisBP:0   MisRate:0.00%    MPKI:0.00
PC:148ce     Total:32      MisBP:0   MisRate:0.00%    MPKI:0.00
PC:148d0     Total:32      MisBP:0   MisRate:0.00%    MPKI:0.00
PC:32794     Total:2      MisBP:0   MisRate:0.00%    MPKI:0.00
PC:148d2     Total:32      MisBP:0   MisRate:0.00%    MPKI:0.00
PC:148d4     Total:31      MisBP:0   MisRate:0.00%    MPKI:0.00
PC:10b6c     Total:1      MisBP:0   MisRate:0.00%    MPKI:0.00
PC:148d6     Total:31      MisBP:0   MisRate:0.00%    MPKI:0.00
PC:148da     Total:35      MisBP:0   MisRate:0.00%    MPKI:0.00
PC:148de     Total:35      MisBP:0   MisRate:0.00%    MPKI:0.00
PC:148e2     Total:35      MisBP:0   MisRate:0.00%    MPKI:0.00
PC:148e6     Total:35      MisBP:0   MisRate:0.00%    MPKI:0.00
PC:148ea     Total:35      MisBP:0   MisRate:0.00%    MPKI:0.00
PC:148ee     Total:35      MisBP:0   MisRate:0.00%    MPKI:0.00
PC:148f0     Total:140      MisBP:0   MisRate:0.00%    MPKI:0.00
PC:327b4     Total:2      MisBP:0   MisRate:0.00%    MPKI:0.00
PC:14816     Total:30      MisBP:0   MisRate:0.00%    MPKI:0.00
PC:2cac8     Total:1      MisBP:0   MisRate:0.00%    MPKI:0.00
PC:1482a     Total:29      MisBP:0   MisRate:0.00%    MPKI:0.00
PC:2cadc     Total:1      MisBP:0   MisRate:0.00%    MPKI:0.00
PC:1482e     Total:29      MisBP:0   MisRate:0.00%    MPKI:0.00
PC:2cde2     Total:2      MisBP:0   MisRate:0.00%    MPKI:0.00
PC:2c8f2     Total:1      MisBP:0   MisRate:0.00%    MPKI:0.00
PC:10f02     Total:1      MisBP:0   MisRate:0.00%    MPKI:0.00
PC:2c8f4     Total:1      MisBP:0   MisRate:0.00%    MPKI:0.00
PC:2c8f6     Total:1      MisBP:0   MisRate:0.00%    MPKI:0.00
PC:10f06     Total:2      MisBP:0   MisRate:0.00%    MPKI:0.00
PC:2c8fa     Total:1      MisBP:0   MisRate:0.00%    MPKI:0.00
PC:3250c     Total:6      MisBP:0   MisRate:0.00%    MPKI:0.00
PC:10f0a     Total:2      MisBP:0   MisRate:0.00%    MPKI:0.00
PC:2c8fe     Total:1      MisBP:0   MisRate:0.00%    MPKI:0.00
PC:32510     Total:3      MisBP:0   MisRate:0.00%    MPKI:0.00
PC:10f0e     Total:2      MisBP:0   MisRate:0.00%    MPKI:0.00
PC:1103c     Total:2      MisBP:0   MisRate:0.00%    MPKI:0.00
PC:2cdde     Total:2      MisBP:0   MisRate:0.00%    MPKI:0.00
PC:10184     Total:8      MisBP:0   MisRate:0.00%    MPKI:0.00
PC:2e0c4     Total:2      MisBP:0   MisRate:0.00%    MPKI:0.00
PC:10188     Total:2      MisBP:0   MisRate:0.00%    MPKI:0.00
PC:2cde8     Total:2      MisBP:0   MisRate:0.00%    MPKI:0.00
PC:2cdf6     Total:2      MisBP:0   MisRate:0.00%    MPKI:0.00
PC:1019c     Total:2      MisBP:0   MisRate:0.00%    MPKI:0.00
PC:2cdfe     Total:2      MisBP:0   MisRate:0.00%    MPKI:0.00
PC:138e2     Total:31741      MisBP:0   MisRate:0.00%    MPKI:0.00
PC:101a4     Total:2      MisBP:0   MisRate:0.00%    MPKI:0.00
PC:10b4e     Total:1      MisBP:0   MisRate:0.00%    MPKI:0.00
PC:10b52     Total:1      MisBP:0   MisRate:0.00%    MPKI:0.00
PC:10b54     Total:1      MisBP:0   MisRate:0.00%    MPKI:0.00
PC:10b56     Total:1      MisBP:0   MisRate:0.00%    MPKI:0.00
PC:10b58     Total:1      MisBP:0   MisRate:0.00%    MPKI:0.00
PC:10b5c     Total:1      MisBP:0   MisRate:0.00%    MPKI:0.00
PC:10b60     Total:1      MisBP:0   MisRate:0.00%    MPKI:0.00
PC:2caee     Total:1      MisBP:0   MisRate:0.00%    MPKI:0.00
PC:32650     Total:22      MisBP:0   MisRate:0.00%    MPKI:0.00
PC:32658     Total:22      MisBP:0   MisRate:0.00%    MPKI:0.00
PC:3265c     Total:22      MisBP:0   MisRate:0.00%    MPKI:0.00
PC:326d0     Total:2      MisBP:0   MisRate:0.00%    MPKI:0.00
PC:326d4     Total:2      MisBP:0   MisRate:0.00%    MPKI:0.00
PC:2cac2     Total:1      MisBP:0   MisRate:0.00%    MPKI:0.00
PC:326ec     Total:2      MisBP:0   MisRate:0.00%    MPKI:0.00
PC:326f0     Total:2      MisBP:0   MisRate:0.00%    MPKI:0.00
PC:2cade     Total:1      MisBP:0   MisRate:0.00%    MPKI:0.00
PC:326f4     Total:2      MisBP:0   MisRate:0.00%    MPKI:0.00
PC:2cae2     Total:1      MisBP:0   MisRate:0.00%    MPKI:0.00
PC:326f8     Total:2      MisBP:0   MisRate:0.00%    MPKI:0.00
PC:326fc     Total:2      MisBP:0   MisRate:0.00%    MPKI:0.00
PC:2caea     Total:1      MisBP:0   MisRate:0.00%    MPKI:0.00
PC:32700     Total:2      MisBP:0   MisRate:0.00%    MPKI:0.00
PC:3264c     Total:22      MisBP:0   MisRate:0.00%    MPKI:0.00
PC:32704     Total:2      MisBP:0   MisRate:0.00%    MPKI:0.00
PC:2caf2     Total:1      MisBP:0   MisRate:0.00%    MPKI:0.00
PC:3270c     Total:2      MisBP:0   MisRate:0.00%    MPKI:0.00
PC:2cafa     Total:1      MisBP:0   MisRate:0.00%    MPKI:0.00
PC:32710     Total:2      MisBP:0   MisRate:0.00%    MPKI:0.00
PC:32714     Total:2      MisBP:0   MisRate:0.00%    MPKI:0.00
PC:32740     Total:2      MisBP:0   MisRate:0.00%    MPKI:0.00
PC:32744     Total:2      MisBP:0   MisRate:0.00%    MPKI:0.00
PC:32748     Total:2      MisBP:0   MisRate:0.00%    MPKI:0.00
PC:32764     Total:2      MisBP:0   MisRate:0.00%    MPKI:0.00
PC:32768     Total:2      MisBP:0   MisRate:0.00%    MPKI:0.00
PC:3276c     Total:2      MisBP:0   MisRate:0.00%    MPKI:0.00
PC:32770     Total:2      MisBP:0   MisRate:0.00%    MPKI:0.00
PC:32774     Total:2      MisBP:0   MisRate:0.00%    MPKI:0.00
[...]
PC:2d714     Total:33      MisBP:0   MisRate:0.00%    MPKI:0.00
PC:138ac     Total:2968053      MisBP:0   MisRate:0.00%    MPKI:0.00
PC:136ac     Total:36448205      MisBP:0   MisRate:0.00%    MPKI:0.00
PC:138ae     Total:2967326      MisBP:0   MisRate:0.00%    MPKI:0.00
PC:10170     Total:3      MisBP:0   MisRate:0.00%    MPKI:0.00
PC:138b0     Total:2966699      MisBP:0   MisRate:0.00%    MPKI:0.00
PC:136b0     Total:3593754      MisBP:0   MisRate:0.00%    MPKI:0.00
PC:2d4e4     Total:17      MisBP:0   MisRate:0.00%    MPKI:0.00
PC:138b2     Total:2966906      MisBP:0   MisRate:0.00%    MPKI:0.00
PC:2cdce     Total:7      MisBP:0   MisRate:0.00%    MPKI:0.00
PC:10174     Total:3      MisBP:0   MisRate:0.00%    MPKI:0.00
PC:136b4     Total:3588630      MisBP:0   MisRate:0.00%    MPKI:0.00
PC:2d3d8     Total:1      MisBP:0   MisRate:0.00%    MPKI:0.00
PC:2d4e8     Total:17      MisBP:0   MisRate:0.00%    MPKI:0.00
PC:138b6     Total:2966871      MisBP:0   MisRate:0.00%    MPKI:0.00
PC:2cdd2     Total:7      MisBP:0   MisRate:0.00%    MPKI:0.00
PC:10178     Total:3      MisBP:0   MisRate:0.00%    MPKI:0.00
PC:138b8     Total:2966410      MisBP:0   MisRate:0.00%    MPKI:0.00
PC:2ef8c     Total:34      MisBP:0   MisRate:0.00%    MPKI:0.00
PC:2cab8     Total:2      MisBP:0   MisRate:0.00%    MPKI:0.00
PC:14806     Total:30      MisBP:0   MisRate:0.00%    MPKI:0.00
PC:2d58e     Total:41      MisBP:0   MisRate:0.00%    MPKI:0.00
PC:2d746     Total:22      MisBP:0   MisRate:0.00%    MPKI:0.00
PC:10aec     Total:11      MisBP:0   MisRate:0.00%    MPKI:0.00
PC:13766     Total:2785811      MisBP:0   MisRate:0.00%    MPKI:0.00
PC:2ef98     Total:28      MisBP:0   MisRate:0.00%    MPKI:0.00
PC:2d72e     Total:18      MisBP:0   MisRate:0.00%    MPKI:0.00
PC:2d718     Total:33      MisBP:0   MisRate:0.00%    MPKI:0.00
PC:2c4ae     Total:1      MisBP:0   MisRate:0.00%    MPKI:0.00
PC:2d71a     Total:33      MisBP:0   MisRate:0.00%    MPKI:0.00
PC:2c4b0     Total:1      MisBP:0   MisRate:0.00%    MPKI:0.00
PC:2d71c     Total:33      MisBP:0   MisRate:0.00%    MPKI:0.00
PC:2c4b2     Total:1      MisBP:0   MisRate:0.00%    MPKI:0.00
PC:2c4b4     Total:1      MisBP:0   MisRate:0.00%    MPKI:0.00
PC:2d720     Total:26      MisBP:0   MisRate:0.00%    MPKI:0.00
PC:2c4b6     Total:1      MisBP:0   MisRate:0.00%    MPKI:0.00
PC:2d722     Total:26      MisBP:0   MisRate:0.00%    MPKI:0.00
PC:2c4ba     Total:1      MisBP:0   MisRate:0.00%    MPKI:0.00
PC:2d728     Total:18      MisBP:0   MisRate:0.00%    MPKI:0.00
PC:2d72a     Total:18      MisBP:0   MisRate:0.00%    MPKI:0.00
PC:2d72c     Total:18      MisBP:0   MisRate:0.00%    MPKI:0.00
PC:2d62a     Total:12      MisBP:0   MisRate:0.00%    MPKI:0.00
PC:2d732     Total:18      MisBP:0   MisRate:0.00%    MPKI:0.00
PC:10ad8     Total:1661      MisBP:0   MisRate:0.00%    MPKI:0.00
PC:2d734     Total:18      MisBP:0   MisRate:0.00%    MPKI:0.00
PC:10ada     Total:3321      MisBP:0   MisRate:0.00%    MPKI:0.00
PC:2d738     Total:18      MisBP:0   MisRate:0.00%    MPKI:0.00
PC:10ade     Total:1660      MisBP:0   MisRate:0.00%    MPKI:0.00
PC:2d73a     Total:18      MisBP:0   MisRate:0.00%    MPKI:0.00
PC:2d73e     Total:18      MisBP:0   MisRate:0.00%    MPKI:0.00
PC:2d640     Total:8      MisBP:0   MisRate:0.00%    MPKI:0.00
PC:2c9e6     Total:16      MisBP:0   MisRate:0.00%    MPKI:0.00
PC:325f8     Total:24      MisBP:0   MisRate:0.00%    MPKI:0.00
PC:10ff8     Total:10      MisBP:0   MisRate:0.00%    MPKI:0.00
PC:2c9ea     Total:2      MisBP:0   MisRate:0.00%    MPKI:0.00
PC:10ffa     Total:10      MisBP:0   MisRate:0.00%    MPKI:0.00
PC:2d5ac     Total:31      MisBP:0   MisRate:0.00%    MPKI:0.00
PC:326bc     Total:3      MisBP:0   MisRate:0.00%    MPKI:0.00
PC:2d580     Total:44      MisBP:0   MisRate:0.00%    MPKI:0.00
PC:2ef80     Total:37      MisBP:0   MisRate:0.00%    MPKI:0.00
PC:2d582     Total:43      MisBP:0   MisRate:0.00%    MPKI:0.00
PC:2ef84     Total:35      MisBP:0   MisRate:0.00%    MPKI:0.00
PC:147fe     Total:30      MisBP:0   MisRate:0.00%    MPKI:0.00
PC:2d594     Total:41      MisBP:0   MisRate:0.00%    MPKI:0.00
PC:2d598     Total:4      MisBP:0   MisRate:0.00%    MPKI:0.00
PC:2ef9a     Total:27      MisBP:0   MisRate:0.00%    MPKI:0.00
PC:326d8     Total:2      MisBP:0   MisRate:0.00%    MPKI:0.00
PC:2d59c     Total:4      MisBP:0   MisRate:0.00%    MPKI:0.00
PC:2efaa     Total:26      MisBP:0   MisRate:0.00%    MPKI:0.00
PC:14824     Total:29      MisBP:0   MisRate:0.00%    MPKI:0.00
PC:326e8     Total:2      MisBP:0   MisRate:0.00%    MPKI:0.00
PC:325fc     Total:24      MisBP:0   MisRate:0.00%    MPKI:0.00
PC:2d5ea     Total:4      MisBP:0   MisRate:0.00%    MPKI:0.00
PC:2d4b6     Total:4      MisBP:0   MisRate:0.00%    MPKI:0.00
PC:2d548     Total:33      MisBP:0   MisRate:0.00%    MPKI:0.00
PC:2d54c     Total:32      MisBP:0   MisRate:0.00%    MPKI:0.00
PC:2d550     Total:32      MisBP:0   MisRate:0.00%    MPKI:0.00
PC:2d552     Total:32      MisBP:0   MisRate:0.00%    MPKI:0.00
PC:2ef52     Total:34      MisBP:0   MisRate:0.00%    MPKI:0.00
PC:32690     Total:22      MisBP:0   MisRate:0.00%    MPKI:0.00
PC:2d554     Total:32      MisBP:0   MisRate:0.00%    MPKI:0.00
PC:2d556     Total:30      MisBP:0   MisRate:0.00%    MPKI:0.00
PC:2d558     Total:30      MisBP:0   MisRate:0.00%    MPKI:0.00
PC:2d5fa     Total:40      MisBP:0   MisRate:0.00%    MPKI:0.00
PC:2d616     Total:9      MisBP:0   MisRate:0.00%    MPKI:0.00
PC:1102e     Total:3      MisBP:0   MisRate:0.00%    MPKI:0.00
PC:32620     Total:24      MisBP:0   MisRate:0.00%    MPKI:0.00
PC:2ca10     Total:1      MisBP:0   MisRate:0.00%    MPKI:0.00
PC:11020     Total:13      MisBP:0   MisRate:0.00%    MPKI:0.00
PC:2ca12     Total:1      MisBP:0   MisRate:0.00%    MPKI:0.00
PC:32624     Total:24      MisBP:0   MisRate:0.00%    MPKI:0.00
PC:2ca14     Total:1      MisBP:0   MisRate:0.00%    MPKI:0.00
PC:11024     Total:13      MisBP:0   MisRate:0.00%    MPKI:0.00
PC:2ca16     Total:1      MisBP:0   MisRate:0.00%    MPKI:0.00
PC:32628     Total:23      MisBP:0   MisRate:0.00%    MPKI:0.00
PC:2ca18     Total:1      MisBP:0   MisRate:0.00%    MPKI:0.00
PC:11028     Total:13      MisBP:0   MisRate:0.00%    MPKI:0.00
PC:2ca1c     Total:1      MisBP:0   MisRate:0.00%    MPKI:0.00
PC:1102c     Total:13      MisBP:0   MisRate:0.00%    MPKI:0.00
PC:2ca1e     Total:1      MisBP:0   MisRate:0.00%    MPKI:0.00
PC:2ca0e     Total:1      MisBP:0   MisRate:0.00%    MPKI:0.00
PC:32630     Total:23      MisBP:0   MisRate:0.00%    MPKI:0.00
PC:2ca20     Total:1      MisBP:0   MisRate:0.00%    MPKI:0.00
PC:2ca22     Total:1      MisBP:0   MisRate:0.00%    MPKI:0.00
PC:11032     Total:3      MisBP:0   MisRate:0.00%    MPKI:0.00
PC:32634     Total:23      MisBP:0   MisRate:0.00%    MPKI:0.00
PC:2ca26     Total:1      MisBP:0   MisRate:0.00%    MPKI:0.00
PC:11036     Total:3      MisBP:0   MisRate:0.00%    MPKI:0.00
PC:32638     Total:23      MisBP:0   MisRate:0.00%    MPKI:0.00
PC:2ca28     Total:1      MisBP:0   MisRate:0.00%    MPKI:0.00
PC:2ca2a     Total:1      MisBP:0   MisRate:0.00%    MPKI:0.00
PC:1103a     Total:2      MisBP:0   MisRate:0.00%    MPKI:0.00
PC:3263c     Total:23      MisBP:0   MisRate:0.00%    MPKI:0.00
PC:2ca2e     Total:1      MisBP:0   MisRate:0.00%    MPKI:0.00
PC:2c9fc     Total:2      MisBP:0   MisRate:0.00%    MPKI:0.00
PC:2c9ec     Total:2      MisBP:0   MisRate:0.00%    MPKI:0.00
PC:10ffc     Total:10      MisBP:0   MisRate:0.00%    MPKI:0.00
PC:2c9ee     Total:2      MisBP:0   MisRate:0.00%    MPKI:0.00
PC:10ffe     Total:9      MisBP:0   MisRate:0.00%    MPKI:0.00
PC:32600     Total:24      MisBP:0   MisRate:0.00%    MPKI:0.00
PC:2c9f0     Total:2      MisBP:0   MisRate:0.00%    MPKI:0.00
PC:2c9f2     Total:2      MisBP:0   MisRate:0.00%    MPKI:0.00
PC:11002     Total:13      MisBP:0   MisRate:0.00%    MPKI:0.00
PC:32604     Total:24      MisBP:0   MisRate:0.00%    MPKI:0.00
PC:2c9f4     Total:2      MisBP:0   MisRate:0.00%    MPKI:0.00
PC:2c9f6     Total:2      MisBP:0   MisRate:0.00%    MPKI:0.00
PC:11006     Total:13      MisBP:0   MisRate:0.00%    MPKI:0.00
PC:32608     Total:24      MisBP:0   MisRate:0.00%    MPKI:0.00
PC:2c9f8     Total:2      MisBP:0   MisRate:0.00%    MPKI:0.00
PC:2d542     Total:34      MisBP:0   MisRate:0.00%    MPKI:0.00
PC:2c9fe     Total:2      MisBP:0   MisRate:0.00%    MPKI:0.00
PC:1100e     Total:13      MisBP:0   MisRate:0.00%    MPKI:0.00
PC:32610     Total:24      MisBP:0   MisRate:0.00%    MPKI:0.00
PC:2cf6e     Total:1      MisBP:0   MisRate:0.00%    MPKI:0.00
PC:2ca00     Total:1      MisBP:0   MisRate:0.00%    MPKI:0.00
PC:2ca04     Total:1      MisBP:0   MisRate:0.00%    MPKI:0.00
PC:2ca06     Total:1      MisBP:0   MisRate:0.00%    MPKI:0.00
PC:11016     Total:13      MisBP:0   MisRate:0.00%    MPKI:0.00
PC:32618     Total:24      MisBP:0   MisRate:0.00%    MPKI:0.00
PC:2ca08     Total:1      MisBP:0   MisRate:0.00%    MPKI:0.00
PC:11018     Total:13      MisBP:0   MisRate:0.00%    MPKI:0.00
PC:2ca0a     Total:1      MisBP:0   MisRate:0.00%    MPKI:0.00
PC:3261c     Total:24      MisBP:0   MisRate:0.00%    MPKI:0.00
PC:147f8     Total:31      MisBP:0   MisRate:0.00%    MPKI:0.00
PC:2cc76     Total:1      MisBP:0   MisRate:0.00%    MPKI:0.00
PC:1375a     Total:2823984      MisBP:0   MisRate:0.00%    MPKI:0.00
PC:2d520     Total:29      MisBP:0   MisRate:0.00%    MPKI:0.00
PC:2cc7a     Total:1      MisBP:0   MisRate:0.00%    MPKI:0.00
PC:1375e     Total:2809405      MisBP:0   MisRate:0.00%    MPKI:0.00
PC:2d524     Total:28      MisBP:0   MisRate:0.00%    MPKI:0.00
PC:2d538     Total:38      MisBP:0   MisRate:0.00%    MPKI:0.00
PC:2d53c     Total:38      MisBP:0   MisRate:0.00%    MPKI:0.00
PC:2ef5a     Total:34      MisBP:0   MisRate:0.00%    MPKI:0.00
PC:2ca86     Total:27      MisBP:0   MisRate:0.00%    MPKI:0.00
PC:32698     Total:3      MisBP:0   MisRate:0.00%    MPKI:0.00
PC:2d55c     Total:60      MisBP:0   MisRate:0.00%    MPKI:0.00
PC:2d51c     Total:29      MisBP:0   MisRate:0.00%    MPKI:0.00
PC:2ef62     Total:34      MisBP:0   MisRate:0.00%    MPKI:0.00
PC:2ca8e     Total:27      MisBP:0   MisRate:0.00%    MPKI:0.00
PC:147dc     Total:269      MisBP:0   MisRate:0.00%    MPKI:0.00
PC:326a0     Total:3      MisBP:0   MisRate:0.00%    MPKI:0.00
PC:2d564     Total:50      MisBP:0   MisRate:0.00%    MPKI:0.00
PC:2d566     Total:50      MisBP:0   MisRate:0.00%    MPKI:0.00
PC:2ef66     Total:33      MisBP:0   MisRate:0.00%    MPKI:0.00
PC:2ca92     Total:27      MisBP:0   MisRate:0.00%    MPKI:0.00
PC:147e0     Total:29      MisBP:0   MisRate:0.00%    MPKI:0.00
PC:326a4     Total:3      MisBP:0   MisRate:0.00%    MPKI:0.00
PC:2d568     Total:50      MisBP:0   MisRate:0.00%    MPKI:0.00
PC:2d56a     Total:47      MisBP:0   MisRate:0.00%    MPKI:0.00
PC:2d4dc     Total:17      MisBP:0   MisRate:0.00%    MPKI:0.00
PC:2d4b8     Total:4      MisBP:0   MisRate:0.00%    MPKI:0.00
PC:2d4ba     Total:4      MisBP:0   MisRate:0.00%    MPKI:0.00
PC:2d4bc     Total:19      MisBP:0   MisRate:0.00%    MPKI:0.00
PC:2d4c0     Total:18      MisBP:0   MisRate:0.00%    MPKI:0.00
PC:2d4c2     Total:18      MisBP:0   MisRate:0.00%    MPKI:0.00
PC:2d4c8     Total:15      MisBP:0   MisRate:0.00%    MPKI:0.00
PC:2d4cc     Total:15      MisBP:0   MisRate:0.00%    MPKI:0.00
PC:2d4ce     Total:15      MisBP:0   MisRate:0.00%    MPKI:0.00
PC:2d4d0     Total:15      MisBP:0   MisRate:0.00%    MPKI:0.00
PC:2d4d4     Total:15      MisBP:0   MisRate:0.00%    MPKI:0.00
PC:2d4d6     Total:15      MisBP:0   MisRate:0.00%    MPKI:0.00
PC:2d4d8     Total:17      MisBP:0   MisRate:0.00%    MPKI:0.00
PC:2d55e     Total:59      MisBP:0   MisRate:0.00%    MPKI:0.00
PC:2d4de     Total:17      MisBP:0   MisRate:0.00%    MPKI:0.00
PC:2d4e2     Total:17      MisBP:0   MisRate:0.00%    MPKI:0.00
PC:2cc40     Total:14      MisBP:0   MisRate:0.00%    MPKI:0.00
PC:2d4ea     Total:17      MisBP:0   MisRate:0.00%    MPKI:0.00
PC:2cc4a     Total:14      MisBP:0   MisRate:0.00%    MPKI:0.00
PC:2d4f4     Total:24      MisBP:0   MisRate:0.00%    MPKI:0.00
PC:2d4f8     Total:24      MisBP:0   MisRate:0.00%    MPKI:0.00
PC:2cc52     Total:14      MisBP:0   MisRate:0.00%    MPKI:0.00
PC:2d4fc     Total:24      MisBP:0   MisRate:0.00%    MPKI:0.00
PC:2cc66     Total:14      MisBP:0   MisRate:0.00%    MPKI:0.00
PC:2d510     Total:29      MisBP:0   MisRate:0.00%    MPKI:0.00
PC:2d516     Total:29      MisBP:0   MisRate:0.00%    MPKI:0.00
PC:2ef74     Total:40      MisBP:0   MisRate:0.00%    MPKI:0.00
PC:2ef7c     Total:40      MisBP:0   MisRate:0.00%    MPKI:0.00
PC:2d57a     Total:45      MisBP:0   MisRate:0.00%    MPKI:0.00
PC:147f2     Total:31      MisBP:0   MisRate:0.00%    MPKI:0.00
PC:2ef78     Total:40      MisBP:0   MisRate:0.00%    MPKI:0.00
PC:2d578     Total:45      MisBP:0   MisRate:0.00%    MPKI:0.00
PC:2d576     Total:46      MisBP:0   MisRate:0.00%    MPKI:0.00
PC:2ef6e     Total:40      MisBP:0   MisRate:0.00%    MPKI:0.00
PC:147ee     Total:29      MisBP:0   MisRate:0.00%    MPKI:0.00
PC:2ca9a     Total:27      MisBP:0   MisRate:0.00%    MPKI:0.00
PC:2ef6a     Total:40      MisBP:0   MisRate:0.00%    MPKI:0.00
PC:147e8     Total:29      MisBP:0   MisRate:0.00%    MPKI:0.00
PC:326ac     Total:3      MisBP:0   MisRate:0.00%    MPKI:0.00
PC:2d570     Total:46      MisBP:0   MisRate:0.00%    MPKI:0.00
PC:2ef70     Total:40      MisBP:0   MisRate:0.00%    MPKI:0.00
PC:2d574     Total:46      MisBP:0   MisRate:0.00%    MPKI:0.00
PC:2ca9c     Total:27      MisBP:0   MisRate:0.00%    MPKI:0.00
PC:2d572     Total:46      MisBP:0   MisRate:0.00%    MPKI:0.00
PC:147ea     Total:29      MisBP:0   MisRate:0.00%    MPKI:0.00
PC:326a8     Total:3      MisBP:0   MisRate:0.00%    MPKI:0.00
PC:2ef7e     Total:40      MisBP:0   MisRate:0.00%    MPKI:0.00
PC:2ca96     Total:27      MisBP:0   MisRate:0.00%    MPKI:0.00
PC:2d57e     Total:45      MisBP:0   MisRate:0.00%    MPKI:0.00
PC:2caaa     Total:2      MisBP:0   MisRate:0.00%    MPKI:0.00
PC:147e4     Total:29      MisBP:0   MisRate:0.00%    MPKI:0.00
PC:147f6     Total:31      MisBP:0   MisRate:0.00%    MPKI:0.00
PC:2caa8     Total:2      MisBP:0   MisRate:0.00%    MPKI:0.00
PC:2d56c     Total:47      MisBP:0   MisRate:0.00%    MPKI:0.00
PC:2d3c6     Total:22      MisBP:1   MisRate:4.55%    MPKI:0.00
PC:2f43e     Total:22      MisBP:1   MisRate:4.55%    MPKI:0.00
PC:32388     Total:2      MisBP:1   MisRate:50.00%    MPKI:0.00
PC:2da5c     Total:5      MisBP:1   MisRate:20.00%    MPKI:0.00
PC:2f44a     Total:22      MisBP:1   MisRate:4.55%    MPKI:0.00
PC:2d618     Total:9      MisBP:1   MisRate:11.11%    MPKI:0.00
PC:2c9ba     Total:16      MisBP:1   MisRate:6.25%    MPKI:0.00
PC:10b3e     Total:12      MisBP:1   MisRate:8.33%    MPKI:0.00
PC:2d766     Total:9      MisBP:1   MisRate:11.11%    MPKI:0.00
PC:10b30     Total:10      MisBP:1   MisRate:10.00%    MPKI:0.00
PC:2cf4a     Total:15      MisBP:1   MisRate:6.67%    MPKI:0.00
PC:324b0     Total:4      MisBP:1   MisRate:25.00%    MPKI:0.00
PC:32394     Total:1      MisBP:1   MisRate:100.00%    MPKI:0.00
PC:2d60a     Total:39      MisBP:2   MisRate:5.13%    MPKI:0.00
PC:2cd54     Total:32      MisBP:2   MisRate:6.25%    MPKI:0.00
PC:2ca6c     Total:8      MisBP:2   MisRate:25.00%    MPKI:0.00
PC:2caa2     Total:27      MisBP:2   MisRate:7.41%    MPKI:0.00
PC:2d492     Total:46      MisBP:2   MisRate:4.35%    MPKI:0.00
PC:32444     Total:3      MisBP:2   MisRate:66.67%    MPKI:0.00
PC:2da2e     Total:25      MisBP:2   MisRate:8.00%    MPKI:0.00
PC:2c8ba     Total:14      MisBP:2   MisRate:14.29%    MPKI:0.00
PC:13c58     Total:77      MisBP:2   MisRate:2.60%    MPKI:0.00
PC:2c998     Total:14      MisBP:2   MisRate:14.29%    MPKI:0.00
PC:2cdd4     Total:7      MisBP:2   MisRate:28.57%    MPKI:0.00
PC:2d9a8     Total:12      MisBP:2   MisRate:16.67%    MPKI:0.00
PC:2d7d0     Total:21      MisBP:2   MisRate:9.52%    MPKI:0.00
PC:138e0     Total:89712      MisBP:2   MisRate:0.00%    MPKI:0.00
PC:10efc     Total:11      MisBP:2   MisRate:18.18%    MPKI:0.00
PC:2c9e8     Total:16      MisBP:2   MisRate:12.50%    MPKI:0.00
PC:2d596     Total:41      MisBP:2   MisRate:4.88%    MPKI:0.00
PC:32410     Total:2      MisBP:2   MisRate:100.00%    MPKI:0.00
PC:10158     Total:9      MisBP:2   MisRate:22.22%    MPKI:0.00
PC:2d724     Total:26      MisBP:2   MisRate:7.69%    MPKI:0.00
PC:2d4c4     Total:18      MisBP:3   MisRate:16.67%    MPKI:0.00
PC:32694     Total:22      MisBP:3   MisRate:13.64%    MPKI:0.00
PC:13c4a     Total:36      MisBP:3   MisRate:8.33%    MPKI:0.00
PC:13712     Total:21107567      MisBP:3   MisRate:0.00%    MPKI:0.00
PC:2d9e2     Total:23      MisBP:3   MisRate:13.04%    MPKI:0.00
PC:13b40     Total:5211      MisBP:3   MisRate:0.06%    MPKI:0.00
PC:2d758     Total:21      MisBP:4   MisRate:19.05%    MPKI:0.00
PC:2d8e8     Total:15      MisBP:4   MisRate:26.67%    MPKI:0.00
PC:13868     Total:21043259      MisBP:4   MisRate:0.00%    MPKI:0.00
PC:3249c     Total:6      MisBP:4   MisRate:66.67%    MPKI:0.00
PC:2d586     Total:43      MisBP:4   MisRate:9.30%    MPKI:0.00
PC:2da3e     Total:24      MisBP:4   MisRate:16.67%    MPKI:0.00
PC:2d9f8     Total:25      MisBP:4   MisRate:16.00%    MPKI:0.00
PC:2d4ac     Total:21      MisBP:4   MisRate:19.05%    MPKI:0.00
PC:2d8f8     Total:15      MisBP:4   MisRate:26.67%    MPKI:0.00
PC:2d76c     Total:13      MisBP:4   MisRate:30.77%    MPKI:0.00
PC:13ab6     Total:14302      MisBP:5   MisRate:0.03%    MPKI:0.00
PC:139a4     Total:257      MisBP:5   MisRate:1.95%    MPKI:0.00
PC:32494     Total:13      MisBP:6   MisRate:46.15%    MPKI:0.00
PC:2d5be     Total:31      MisBP:7   MisRate:22.58%    MPKI:0.00
PC:2d628     Total:148      MisBP:7   MisRate:4.73%    MPKI:0.00
PC:2ca44     Total:14      MisBP:8   MisRate:57.14%    MPKI:0.00
PC:2d71e     Total:33      MisBP:8   MisRate:24.24%    MPKI:0.00
PC:137c0     Total:2851494      MisBP:10   MisRate:0.00%    MPKI:0.00
PC:1390a     Total:1759      MisBP:11   MisRate:0.63%    MPKI:0.00
PC:10ae0     Total:1660      MisBP:11   MisRate:0.66%    MPKI:0.00
PC:13b6e     Total:19      MisBP:11   MisRate:57.89%    MPKI:0.00
PC:13ba2     Total:2497      MisBP:13   MisRate:0.52%    MPKI:0.00
PC:2d7ca     Total:64      MisBP:14   MisRate:21.88%    MPKI:0.00
PC:13b5a     Total:5073      MisBP:16   MisRate:0.32%    MPKI:0.00
PC:13c34     Total:1612      MisBP:22   MisRate:1.36%    MPKI:0.00
PC:2d560     Total:59      MisBP:24   MisRate:40.68%    MPKI:0.00
PC:1399e     Total:54063      MisBP:34   MisRate:0.06%    MPKI:0.00
PC:138a8     Total:22663      MisBP:82   MisRate:0.36%    MPKI:0.00
PC:13ad2     Total:63023      MisBP:94   MisRate:0.15%    MPKI:0.00
PC:1389a     Total:54264      MisBP:267   MisRate:0.49%    MPKI:0.00
PC:13834     Total:778617      MisBP:425   MisRate:0.05%    MPKI:0.00
PC:13854     Total:717157      MisBP:869   MisRate:0.12%    MPKI:0.00
PC:13b30     Total:16340      MisBP:974   MisRate:5.96%    MPKI:0.00
PC:13b22     Total:11365      MisBP:2031   MisRate:17.87%    MPKI:0.01
PC:13adc     Total:49648      MisBP:3918   MisRate:7.89%    MPKI:0.01
PC:13ad8     Total:60234      MisBP:5294   MisRate:8.79%    MPKI:0.02
PC:13acc     Total:50478      MisBP:7929   MisRate:15.71%    MPKI:0.03
PC:138d2     Total:2982077      MisBP:20615   MisRate:0.69%    MPKI:0.07
PC:1382e     Total:2978125      MisBP:22116   MisRate:0.74%    MPKI:0.07
PC:13826     Total:2337289      MisBP:321999   MisRate:13.78%    MPKI:1.04
PC:1376c     Total:2776141      MisBP:414471   MisRate:14.93%    MPKI:1.34
PC:13808     Total:9238364      MisBP:511751   MisRate:5.54%    MPKI:1.65
PC:13818     Total:5125133      MisBP:707986   MisRate:13.81%    MPKI:2.28
PC:137f2     Total:7068671      MisBP:964310   MisRate:13.64%    MPKI:3.11
PC:13812     Total:8289532      MisBP:1049041   MisRate:12.66%    MPKI:3.38
Totfetch:568655891  TotInsts:310000000  TotMis : inf%   MPKI : 13.01
=============finish sim!!!!!!=============
Done running SimPoint!
