Global frequency set at 1000000000000 ticks per second
 Register [printBranch()] ExitCallback !!!!!!! 
gem5 Simulator System.  https://www.gem5.org
gem5 is copyrighted software; use the --copyright option for details.

gem5 version 22.0.0.2
gem5 compiled Sep  7 2022 00:42:18
gem5 started Sep  7 2022 02:50:12
gem5 executing on a100, pid 2747284
command line: /data/zxf/gem5/gem5-prof/build/ARM/gem5.fast --outdir=/data/zxf/checkpoint/spec2006/401.bzip2/prof/bzip2_ckp_5 /data/zxf/gem5/gem5-prof/configs/example/se.py --cpu-type O3CPU --cpu-clock 1GHz --num-cpu 1 --l1d-hwp-type=BOPPrefetcher --caches --l2cache --l1i_size 32kB --l1d_size 32kB --l2_size 1MB --l1i_assoc 8 --l1d_assoc 8 --l2_assoc 16 --cacheline_size 64 --mem-type DDR3_2133_8x8 --mem-size 16GB --restore-simpoint-checkpoint -r 5 --checkpoint-dir /data/zxf/checkpoint/spec2006/401.bzip2/ckpt -c bzip2_base.gcc41-64bit -o 'input.source 280'

info: Standard input is not a terminal, disabling listeners.
Resuming from /data/zxf/checkpoint/spec2006/401.bzip2/ckpt/cpt.simpoint_04_inst_104990000000_weight_0.004868_interval_300000000_warmup_10000000
Resuming from SimPoint #4, start_inst:104990000000, weight:0.004868, interval:300000000, warmup:10000000
Switch at curTick count:10000
Switched CPUS @ tick 64666522348000
[(<m5.objects.ArmCPU.ArmAtomicSimpleCPU object at 0x7fc5b1746bb0>, <m5.objects.ArmCPU.ArmO3CPU object at 0x7fc5b175ee20>)]
switching cpus



+++++++++++++++++++++++++zxf print simpoint+++++++++++++++++++++++++++
Warmed up! Dumping and resetting stats!


=============start sim!!!!!!=============
PC:292a6     Total:2      MisBP:0   MisRate:0.00%    MPKI:0.00
PC:1291e     Total:2      MisBP:0   MisRate:0.00%    MPKI:0.00
PC:10160     Total:16      MisBP:0   MisRate:0.00%    MPKI:0.00
PC:151a2     Total:21      MisBP:0   MisRate:0.00%    MPKI:0.00
PC:292aa     Total:2      MisBP:0   MisRate:0.00%    MPKI:0.00
PC:150dc     Total:137717      MisBP:0   MisRate:0.00%    MPKI:0.00
PC:1415c     Total:151      MisBP:0   MisRate:0.00%    MPKI:0.00
PC:1919e     Total:3      MisBP:0   MisRate:0.00%    MPKI:0.00
PC:1199e     Total:1      MisBP:0   MisRate:0.00%    MPKI:0.00
PC:150da     Total:73114      MisBP:0   MisRate:0.00%    MPKI:0.00
PC:1291a     Total:4      MisBP:0   MisRate:0.00%    MPKI:0.00
PC:1015c     Total:16      MisBP:0   MisRate:0.00%    MPKI:0.00
PC:1519e     Total:21      MisBP:0   MisRate:0.00%    MPKI:0.00
PC:150de     Total:137616      MisBP:0   MisRate:0.00%    MPKI:0.00
PC:14158     Total:116      MisBP:0   MisRate:0.00%    MPKI:0.00
PC:1199a     Total:1      MisBP:0   MisRate:0.00%    MPKI:0.00
PC:12916     Total:2      MisBP:0   MisRate:0.00%    MPKI:0.00
PC:1519a     Total:21      MisBP:0   MisRate:0.00%    MPKI:0.00
PC:292a2     Total:2      MisBP:0   MisRate:0.00%    MPKI:0.00
PC:150d4     Total:88127      MisBP:0   MisRate:0.00%    MPKI:0.00
PC:150d0     Total:88130      MisBP:0   MisRate:0.00%    MPKI:0.00
PC:12910     Total:2      MisBP:0   MisRate:0.00%    MPKI:0.00
PC:150ce     Total:88133      MisBP:0   MisRate:0.00%    MPKI:0.00
PC:1290c     Total:2      MisBP:0   MisRate:0.00%    MPKI:0.00
PC:150ca     Total:88175      MisBP:0   MisRate:0.00%    MPKI:0.00
PC:150ee     Total:2150204      MisBP:0   MisRate:0.00%    MPKI:0.00
PC:12938     Total:1      MisBP:0   MisRate:0.00%    MPKI:0.00
PC:150f6     Total:110866      MisBP:0   MisRate:0.00%    MPKI:0.00
PC:12936     Total:1      MisBP:0   MisRate:0.00%    MPKI:0.00
PC:10178     Total:14      MisBP:0   MisRate:0.00%    MPKI:0.00
PC:151ba     Total:1      MisBP:0   MisRate:0.00%    MPKI:0.00
PC:292c2     Total:1      MisBP:0   MisRate:0.00%    MPKI:0.00
PC:150f2     Total:2134716      MisBP:0   MisRate:0.00%    MPKI:0.00
PC:12932     Total:1      MisBP:0   MisRate:0.00%    MPKI:0.00
PC:10174     Total:14      MisBP:0   MisRate:0.00%    MPKI:0.00
PC:151b6     Total:1      MisBP:0   MisRate:0.00%    MPKI:0.00
PC:292be     Total:2      MisBP:0   MisRate:0.00%    MPKI:0.00
PC:150f0     Total:2148539      MisBP:0   MisRate:0.00%    MPKI:0.00
PC:12908     Total:2      MisBP:0   MisRate:0.00%    MPKI:0.00
PC:1292c     Total:1      MisBP:0   MisRate:0.00%    MPKI:0.00
PC:150ea     Total:4349841      MisBP:0   MisRate:0.00%    MPKI:0.00
PC:12928     Total:1      MisBP:0   MisRate:0.00%    MPKI:0.00
PC:150e6     Total:132513      MisBP:0   MisRate:0.00%    MPKI:0.00
PC:12924     Total:1      MisBP:0   MisRate:0.00%    MPKI:0.00
PC:10164     Total:16      MisBP:0   MisRate:0.00%    MPKI:0.00
PC:151a6     Total:21      MisBP:0   MisRate:0.00%    MPKI:0.00
PC:292ae     Total:2      MisBP:0   MisRate:0.00%    MPKI:0.00
PC:150e0     Total:137604      MisBP:0   MisRate:0.00%    MPKI:0.00
PC:119a2     Total:6      MisBP:0   MisRate:0.00%    MPKI:0.00
PC:12920     Total:2      MisBP:0   MisRate:0.00%    MPKI:0.00
PC:1195a     Total:7      MisBP:0   MisRate:0.00%    MPKI:0.00
PC:1196a     Total:1      MisBP:0   MisRate:0.00%    MPKI:0.00
PC:128e6     Total:101      MisBP:0   MisRate:0.00%    MPKI:0.00
PC:150a4     Total:93487      MisBP:0   MisRate:0.00%    MPKI:0.00
PC:150a0     Total:93689      MisBP:0   MisRate:0.00%    MPKI:0.00
PC:128e0     Total:100      MisBP:0   MisRate:0.00%    MPKI:0.00
PC:1509e     Total:93688      MisBP:0   MisRate:0.00%    MPKI:0.00
PC:11960     Total:7      MisBP:0   MisRate:0.00%    MPKI:0.00
PC:128de     Total:100      MisBP:0   MisRate:0.00%    MPKI:0.00
PC:1509c     Total:93693      MisBP:0   MisRate:0.00%    MPKI:0.00
PC:1195e     Total:7      MisBP:0   MisRate:0.00%    MPKI:0.00
PC:15098     Total:93702      MisBP:0   MisRate:0.00%    MPKI:0.00
PC:14118     Total:100      MisBP:0   MisRate:0.00%    MPKI:0.00
PC:14128     Total:100      MisBP:0   MisRate:0.00%    MPKI:0.00
PC:128d8     Total:100      MisBP:0   MisRate:0.00%    MPKI:0.00
PC:15096     Total:75790      MisBP:0   MisRate:0.00%    MPKI:0.00
PC:128d6     Total:100      MisBP:0   MisRate:0.00%    MPKI:0.00
PC:15094     Total:75790      MisBP:0   MisRate:0.00%    MPKI:0.00
PC:11956     Total:7      MisBP:0   MisRate:0.00%    MPKI:0.00
PC:16998     Total:9      MisBP:0   MisRate:0.00%    MPKI:0.00
PC:15090     Total:77866      MisBP:0   MisRate:0.00%    MPKI:0.00
PC:11952     Total:7      MisBP:0   MisRate:0.00%    MPKI:0.00
PC:16994     Total:1      MisBP:0   MisRate:0.00%    MPKI:0.00
PC:11950     Total:1142518      MisBP:0   MisRate:0.00%    MPKI:0.00
PC:16992     Total:1      MisBP:0   MisRate:0.00%    MPKI:0.00
PC:1197a     Total:1      MisBP:0   MisRate:0.00%    MPKI:0.00
PC:150c6     Total:88175      MisBP:0   MisRate:0.00%    MPKI:0.00
PC:12906     Total:2      MisBP:0   MisRate:0.00%    MPKI:0.00
PC:150c4     Total:88200      MisBP:0   MisRate:0.00%    MPKI:0.00
PC:14144     Total:100      MisBP:0   MisRate:0.00%    MPKI:0.00
PC:11986     Total:1      MisBP:0   MisRate:0.00%    MPKI:0.00
PC:150c0     Total:88202      MisBP:0   MisRate:0.00%    MPKI:0.00
PC:11982     Total:1      MisBP:0   MisRate:0.00%    MPKI:0.00
PC:150bc     Total:91532      MisBP:0   MisRate:0.00%    MPKI:0.00
PC:1197e     Total:1      MisBP:0   MisRate:0.00%    MPKI:0.00
PC:128fa     Total:132      MisBP:0   MisRate:0.00%    MPKI:0.00
PC:150b8     Total:91534      MisBP:0   MisRate:0.00%    MPKI:0.00
PC:150f8     Total:110778      MisBP:0   MisRate:0.00%    MPKI:0.00
PC:150b4     Total:91537      MisBP:0   MisRate:0.00%    MPKI:0.00
PC:14134     Total:100      MisBP:0   MisRate:0.00%    MPKI:0.00
PC:11976     Total:1      MisBP:0   MisRate:0.00%    MPKI:0.00
PC:128f4     Total:135      MisBP:0   MisRate:0.00%    MPKI:0.00
PC:150b2     Total:91545      MisBP:0   MisRate:0.00%    MPKI:0.00
PC:11974     Total:1      MisBP:0   MisRate:0.00%    MPKI:0.00
PC:150ae     Total:92219      MisBP:0   MisRate:0.00%    MPKI:0.00
PC:128ec     Total:101      MisBP:0   MisRate:0.00%    MPKI:0.00
PC:150aa     Total:92219      MisBP:0   MisRate:0.00%    MPKI:0.00
PC:128ea     Total:101      MisBP:0   MisRate:0.00%    MPKI:0.00
PC:150a8     Total:93483      MisBP:0   MisRate:0.00%    MPKI:0.00
PC:15a20     Total:9931      MisBP:0   MisRate:0.00%    MPKI:0.00
PC:1916e     Total:3      MisBP:0   MisRate:0.00%    MPKI:0.00
PC:1412c     Total:100      MisBP:0   MisRate:0.00%    MPKI:0.00
PC:15a30     Total:9926      MisBP:0   MisRate:0.00%    MPKI:0.00
PC:15a2e     Total:9915      MisBP:0   MisRate:0.00%    MPKI:0.00
PC:19168     Total:3      MisBP:0   MisRate:0.00%    MPKI:0.00
PC:14126     Total:100      MisBP:0   MisRate:0.00%    MPKI:0.00
PC:15a2a     Total:9931      MisBP:0   MisRate:0.00%    MPKI:0.00
PC:19164     Total:3      MisBP:0   MisRate:0.00%    MPKI:0.00
PC:14122     Total:100      MisBP:0   MisRate:0.00%    MPKI:0.00
PC:15a24     Total:9931      MisBP:0   MisRate:0.00%    MPKI:0.00
PC:1915e     Total:3      MisBP:0   MisRate:0.00%    MPKI:0.00
PC:1411c     Total:100      MisBP:0   MisRate:0.00%    MPKI:0.00
PC:14130     Total:100      MisBP:0   MisRate:0.00%    MPKI:0.00
PC:141e0     Total:35      MisBP:0   MisRate:0.00%    MPKI:0.00
PC:1915c     Total:3      MisBP:0   MisRate:0.00%    MPKI:0.00
PC:15a1e     Total:9931      MisBP:0   MisRate:0.00%    MPKI:0.00
PC:141dc     Total:5      MisBP:0   MisRate:0.00%    MPKI:0.00
PC:19158     Total:3      MisBP:0   MisRate:0.00%    MPKI:0.00
PC:15a1a     Total:9923      MisBP:0   MisRate:0.00%    MPKI:0.00
PC:141d8     Total:5      MisBP:0   MisRate:0.00%    MPKI:0.00
PC:19154     Total:3      MisBP:0   MisRate:0.00%    MPKI:0.00
PC:15a16     Total:9923      MisBP:0   MisRate:0.00%    MPKI:0.00
PC:15a14     Total:9922      MisBP:0   MisRate:0.00%    MPKI:0.00
PC:29800     Total:859      MisBP:0   MisRate:0.00%    MPKI:0.00
PC:191ae     Total:3      MisBP:0   MisRate:0.00%    MPKI:0.00
PC:16284     Total:9888      MisBP:0   MisRate:0.00%    MPKI:0.00
PC:16282     Total:9888      MisBP:0   MisRate:0.00%    MPKI:0.00
PC:16280     Total:9888      MisBP:0   MisRate:0.00%    MPKI:0.00
PC:1627e     Total:9924      MisBP:0   MisRate:0.00%    MPKI:0.00
PC:1627c     Total:9924      MisBP:0   MisRate:0.00%    MPKI:0.00
PC:1627a     Total:9924      MisBP:0   MisRate:0.00%    MPKI:0.00
PC:16276     Total:9948      MisBP:0   MisRate:0.00%    MPKI:0.00
PC:16274     Total:9948      MisBP:0   MisRate:0.00%    MPKI:0.00
PC:16270     Total:9948      MisBP:0   MisRate:0.00%    MPKI:0.00
PC:1626e     Total:9948      MisBP:0   MisRate:0.00%    MPKI:0.00
PC:1626a     Total:9948      MisBP:0   MisRate:0.00%    MPKI:0.00
PC:16268     Total:9948      MisBP:0   MisRate:0.00%    MPKI:0.00
PC:15a10     Total:9922      MisBP:0   MisRate:0.00%    MPKI:0.00
PC:15a70     Total:9954      MisBP:0   MisRate:0.00%    MPKI:0.00
PC:191a8     Total:3      MisBP:0   MisRate:0.00%    MPKI:0.00
PC:14166     Total:150      MisBP:0   MisRate:0.00%    MPKI:0.00
PC:15a6a     Total:9954      MisBP:0   MisRate:0.00%    MPKI:0.00
PC:191a2     Total:3      MisBP:0   MisRate:0.00%    MPKI:0.00
PC:15a64     Total:9947      MisBP:0   MisRate:0.00%    MPKI:0.00
PC:1919c     Total:3      MisBP:0   MisRate:0.00%    MPKI:0.00
PC:15a5e     Total:9917      MisBP:0   MisRate:0.00%    MPKI:0.00
PC:19174     Total:3      MisBP:0   MisRate:0.00%    MPKI:0.00
PC:15a36     Total:9921      MisBP:0   MisRate:0.00%    MPKI:0.00
PC:19172     Total:3      MisBP:0   MisRate:0.00%    MPKI:0.00
PC:15516     Total:11978      MisBP:0   MisRate:0.00%    MPKI:0.00
PC:15536     Total:1      MisBP:0   MisRate:0.00%    MPKI:0.00
PC:191cc     Total:3      MisBP:0   MisRate:0.00%    MPKI:0.00
PC:1418a     Total:2      MisBP:0   MisRate:0.00%    MPKI:0.00
PC:15a8e     Total:9940      MisBP:0   MisRate:0.00%    MPKI:0.00
PC:12d68     Total:6647      MisBP:0   MisRate:0.00%    MPKI:0.00
PC:15526     Total:1      MisBP:0   MisRate:0.00%    MPKI:0.00
PC:191c8     Total:3      MisBP:0   MisRate:0.00%    MPKI:0.00
PC:15a8a     Total:9940      MisBP:0   MisRate:0.00%    MPKI:0.00
PC:12d64     Total:6649      MisBP:0   MisRate:0.00%    MPKI:0.00
PC:15522     Total:1      MisBP:0   MisRate:0.00%    MPKI:0.00
PC:191bc     Total:3      MisBP:0   MisRate:0.00%    MPKI:0.00
PC:15a7e     Total:9970      MisBP:0   MisRate:0.00%    MPKI:0.00
PC:12d78     Total:6647      MisBP:0   MisRate:0.00%    MPKI:0.00
PC:15122     Total:11      MisBP:0   MisRate:0.00%    MPKI:0.00
PC:1511e     Total:26      MisBP:0   MisRate:0.00%    MPKI:0.00
PC:1510a     Total:102907      MisBP:0   MisRate:0.00%    MPKI:0.00
PC:10188     Total:13      MisBP:0   MisRate:0.00%    MPKI:0.00
PC:151ca     Total:1      MisBP:0   MisRate:0.00%    MPKI:0.00
PC:292d2     Total:1      MisBP:0   MisRate:0.00%    MPKI:0.00
PC:15104     Total:103458      MisBP:0   MisRate:0.00%    MPKI:0.00
PC:1293a     Total:1      MisBP:0   MisRate:0.00%    MPKI:0.00
PC:1017c     Total:14      MisBP:0   MisRate:0.00%    MPKI:0.00
PC:151be     Total:1      MisBP:0   MisRate:0.00%    MPKI:0.00
PC:292c6     Total:1      MisBP:0   MisRate:0.00%    MPKI:0.00
PC:15246     Total:1      MisBP:0   MisRate:0.00%    MPKI:0.00
PC:15a04     Total:9882      MisBP:0   MisRate:0.00%    MPKI:0.00
PC:159da     Total:9832      MisBP:0   MisRate:0.00%    MPKI:0.00
PC:14188     Total:2      MisBP:0   MisRate:0.00%    MPKI:0.00
PC:19104     Total:3      MisBP:0   MisRate:0.00%    MPKI:0.00
PC:140c2     Total:118      MisBP:0   MisRate:0.00%    MPKI:0.00
PC:159c6     Total:9817      MisBP:0   MisRate:0.00%    MPKI:0.00
PC:14178     Total:34      MisBP:0   MisRate:0.00%    MPKI:0.00
PC:190f4     Total:3      MisBP:0   MisRate:0.00%    MPKI:0.00
PC:140b2     Total:100      MisBP:0   MisRate:0.00%    MPKI:0.00
PC:159b6     Total:9825      MisBP:0   MisRate:0.00%    MPKI:0.00
PC:15266     Total:9      MisBP:0   MisRate:0.00%    MPKI:0.00
PC:16990     Total:1      MisBP:0   MisRate:0.00%    MPKI:0.00
PC:10204     Total:1      MisBP:0   MisRate:0.00%    MPKI:0.00
PC:15226     Total:2      MisBP:0   MisRate:0.00%    MPKI:0.00
PC:101e4     Total:4      MisBP:0   MisRate:0.00%    MPKI:0.00
PC:15214     Total:2      MisBP:0   MisRate:0.00%    MPKI:0.00
PC:15210     Total:2      MisBP:0   MisRate:0.00%    MPKI:0.00
PC:15206     Total:2      MisBP:0   MisRate:0.00%    MPKI:0.00
PC:101c4     Total:16      MisBP:0   MisRate:0.00%    MPKI:0.00
PC:151ee     Total:16      MisBP:0   MisRate:0.00%    MPKI:0.00
PC:101ac     Total:7      MisBP:0   MisRate:0.00%    MPKI:0.00
PC:10154     Total:134      MisBP:0   MisRate:0.00%    MPKI:0.00
PC:2929e     Total:2      MisBP:0   MisRate:0.00%    MPKI:0.00
PC:14bac     Total:4      MisBP:0   MisRate:0.00%    MPKI:0.00
PC:1149e     Total:3000191      MisBP:0   MisRate:0.00%    MPKI:0.00
PC:10eca     Total:112      MisBP:0   MisRate:0.00%    MPKI:0.00
PC:15f0c     Total:9952      MisBP:0   MisRate:0.00%    MPKI:0.00
PC:15e46     Total:10074      MisBP:0   MisRate:0.00%    MPKI:0.00
PC:159e6     Total:9849      MisBP:0   MisRate:0.00%    MPKI:0.00
PC:14bd4     Total:2      MisBP:0   MisRate:0.00%    MPKI:0.00
PC:10ec2     Total:112      MisBP:0   MisRate:0.00%    MPKI:0.00
PC:15f04     Total:9952      MisBP:0   MisRate:0.00%    MPKI:0.00
PC:15e3e     Total:10116      MisBP:0   MisRate:0.00%    MPKI:0.00
PC:14180     Total:2      MisBP:0   MisRate:0.00%    MPKI:0.00
PC:191c2     Total:3      MisBP:0   MisRate:0.00%    MPKI:0.00
PC:159be     Total:9825      MisBP:0   MisRate:0.00%    MPKI:0.00
PC:1641a     Total:10084      MisBP:0   MisRate:0.00%    MPKI:0.00
PC:163ea     Total:10083      MisBP:0   MisRate:0.00%    MPKI:0.00
PC:1146e     Total:219      MisBP:0   MisRate:0.00%    MPKI:0.00
PC:164b0     Total:9987      MisBP:0   MisRate:0.00%    MPKI:0.00
PC:10e9a     Total:100      MisBP:0   MisRate:0.00%    MPKI:0.00
PC:15edc     Total:9955      MisBP:0   MisRate:0.00%    MPKI:0.00
PC:15e16     Total:10112      MisBP:0   MisRate:0.00%    MPKI:0.00
PC:14b84     Total:1      MisBP:0   MisRate:0.00%    MPKI:0.00
PC:15dee     Total:10031      MisBP:0   MisRate:0.00%    MPKI:0.00
PC:14b80     Total:1      MisBP:0   MisRate:0.00%    MPKI:0.00
PC:15dea     Total:10031      MisBP:0   MisRate:0.00%    MPKI:0.00
PC:14aae     Total:2      MisBP:0   MisRate:0.00%    MPKI:0.00
PC:15e52     Total:10065      MisBP:0   MisRate:0.00%    MPKI:0.00
PC:14bec     Total:5      MisBP:0   MisRate:0.00%    MPKI:0.00
PC:1642a     Total:10116      MisBP:0   MisRate:0.00%    MPKI:0.00
PC:164f0     Total:9973      MisBP:0   MisRate:0.00%    MPKI:0.00
PC:15e56     Total:10080      MisBP:0   MisRate:0.00%    MPKI:0.00
PC:14bea     Total:5      MisBP:0   MisRate:0.00%    MPKI:0.00
PC:10ed8     Total:2      MisBP:0   MisRate:0.00%    MPKI:0.00
PC:15e54     Total:10081      MisBP:0   MisRate:0.00%    MPKI:0.00
PC:159fa     Total:9876      MisBP:0   MisRate:0.00%    MPKI:0.00
PC:14be8     Total:5      MisBP:0   MisRate:0.00%    MPKI:0.00
PC:16426     Total:10116      MisBP:0   MisRate:0.00%    MPKI:0.00
PC:114aa     Total:3000103      MisBP:0   MisRate:0.00%    MPKI:0.00
PC:164ec     Total:9973      MisBP:0   MisRate:0.00%    MPKI:0.00
PC:14d98     Total:5146      MisBP:0   MisRate:0.00%    MPKI:0.00
PC:14be4     Total:5      MisBP:0   MisRate:0.00%    MPKI:0.00
PC:18be0     Total:14543      MisBP:0   MisRate:0.00%    MPKI:0.00
PC:1dc22     Total:12      MisBP:0   MisRate:0.00%    MPKI:0.00
PC:16422     Total:10116      MisBP:0   MisRate:0.00%    MPKI:0.00
PC:114a6     Total:3000190      MisBP:0   MisRate:0.00%    MPKI:0.00
PC:164e8     Total:9973      MisBP:0   MisRate:0.00%    MPKI:0.00
PC:10ed2     Total:1      MisBP:0   MisRate:0.00%    MPKI:0.00
PC:15f14     Total:9937      MisBP:0   MisRate:0.00%    MPKI:0.00
PC:15e4e     Total:10068      MisBP:0   MisRate:0.00%    MPKI:0.00
PC:14bdc     Total:101      MisBP:0   MisRate:0.00%    MPKI:0.00
PC:18bd8     Total:14621      MisBP:0   MisRate:0.00%    MPKI:0.00
PC:15c8a     Total:9955      MisBP:0   MisRate:0.00%    MPKI:0.00
PC:18fa4     Total:9      MisBP:0   MisRate:0.00%    MPKI:0.00
PC:14a54     Total:122737      MisBP:0   MisRate:0.00%    MPKI:0.00
PC:14a4a     Total:122778      MisBP:0   MisRate:0.00%    MPKI:0.00
PC:167d8     Total:187      MisBP:0   MisRate:0.00%    MPKI:0.00
PC:11796     Total:37      MisBP:0   MisRate:0.00%    MPKI:0.00
PC:18f96     Total:10      MisBP:0   MisRate:0.00%    MPKI:0.00
PC:14a46     Total:122817      MisBP:0   MisRate:0.00%    MPKI:0.00
PC:15cb0     Total:9921      MisBP:0   MisRate:0.00%    MPKI:0.00
PC:14a3c     Total:130347      MisBP:0   MisRate:0.00%    MPKI:0.00
PC:15ca6     Total:9907      MisBP:0   MisRate:0.00%    MPKI:0.00
PC:15c98     Total:9933      MisBP:0   MisRate:0.00%    MPKI:0.00
PC:14a20     Total:759782      MisBP:0   MisRate:0.00%    MPKI:0.00
PC:117a4     Total:32      MisBP:0   MisRate:0.00%    MPKI:0.00
PC:14b66     Total:5      MisBP:0   MisRate:0.00%    MPKI:0.00
PC:14b50     Total:3      MisBP:0   MisRate:0.00%    MPKI:0.00
PC:15dba     Total:9980      MisBP:0   MisRate:0.00%    MPKI:0.00
PC:14b44     Total:3      MisBP:0   MisRate:0.00%    MPKI:0.00
PC:14b40     Total:1      MisBP:0   MisRate:0.00%    MPKI:0.00
PC:14b36     Total:2      MisBP:0   MisRate:0.00%    MPKI:0.00
PC:14b20     Total:3      MisBP:0   MisRate:0.00%    MPKI:0.00
PC:15126     Total:11      MisBP:0   MisRate:0.00%    MPKI:0.00
PC:151d0     Total:1      MisBP:0   MisRate:0.00%    MPKI:0.00
PC:18c4c     Total:403      MisBP:0   MisRate:0.00%    MPKI:0.00
PC:1648e     Total:9992      MisBP:0   MisRate:0.00%    MPKI:0.00
PC:15dd6     Total:9966      MisBP:0   MisRate:0.00%    MPKI:0.00
PC:125da     Total:2      MisBP:0   MisRate:0.00%    MPKI:0.00
PC:14aa8     Total:2      MisBP:0   MisRate:0.00%    MPKI:0.00
PC:14d92     Total:5161      MisBP:0   MisRate:0.00%    MPKI:0.00
PC:125d4     Total:2      MisBP:0   MisRate:0.00%    MPKI:0.00
PC:14a9c     Total:4      MisBP:0   MisRate:0.00%    MPKI:0.00
PC:15d06     Total:9958      MisBP:0   MisRate:0.00%    MPKI:0.00
PC:14a92     Total:3      MisBP:0   MisRate:0.00%    MPKI:0.00
PC:15cfc     Total:9954      MisBP:0   MisRate:0.00%    MPKI:0.00
PC:14b70     Total:4      MisBP:0   MisRate:0.00%    MPKI:0.00
PC:15dda     Total:9966      MisBP:0   MisRate:0.00%    MPKI:0.00
PC:14b6c     Total:4      MisBP:0   MisRate:0.00%    MPKI:0.00
PC:159fe     Total:9886      MisBP:0   MisRate:0.00%    MPKI:0.00
PC:14a6c     Total:281430      MisBP:0   MisRate:0.00%    MPKI:0.00
PC:15cd6     Total:9946      MisBP:0   MisRate:0.00%    MPKI:0.00
PC:14a68     Total:284737      MisBP:0   MisRate:0.00%    MPKI:0.00
PC:15cd2     Total:9932      MisBP:0   MisRate:0.00%    MPKI:0.00
PC:14a60     Total:285048      MisBP:0   MisRate:0.00%    MPKI:0.00
PC:15cca     Total:9924      MisBP:0   MisRate:0.00%    MPKI:0.00
PC:167ec     Total:1138      MisBP:0   MisRate:0.00%    MPKI:0.00
PC:117aa     Total:32      MisBP:0   MisRate:0.00%    MPKI:0.00
PC:18faa     Total:9      MisBP:0   MisRate:0.00%    MPKI:0.00
PC:15cc4     Total:9920      MisBP:0   MisRate:0.00%    MPKI:0.00
PC:167e6     Total:1139      MisBP:0   MisRate:0.00%    MPKI:0.00
PC:1191c     Total:1009576      MisBP:0   MisRate:0.00%    MPKI:0.00
PC:1506a     Total:7      MisBP:0   MisRate:0.00%    MPKI:0.00
PC:15068     Total:7      MisBP:0   MisRate:0.00%    MPKI:0.00
PC:15064     Total:7      MisBP:0   MisRate:0.00%    MPKI:0.00
PC:15062     Total:7      MisBP:0   MisRate:0.00%    MPKI:0.00
PC:15060     Total:7      MisBP:0   MisRate:0.00%    MPKI:0.00
PC:1505e     Total:7      MisBP:0   MisRate:0.00%    MPKI:0.00
PC:1689c     Total:4      MisBP:0   MisRate:0.00%    MPKI:0.00
PC:1185a     Total:26      MisBP:0   MisRate:0.00%    MPKI:0.00
PC:11920     Total:1009469      MisBP:0   MisRate:0.00%    MPKI:0.00
PC:16962     Total:348      MisBP:0   MisRate:0.00%    MPKI:0.00
PC:1505a     Total:7      MisBP:0   MisRate:0.00%    MPKI:0.00
PC:16898     Total:4      MisBP:0   MisRate:0.00%    MPKI:0.00
PC:1506c     Total:7      MisBP:0   MisRate:0.00%    MPKI:0.00
PC:1695e     Total:348      MisBP:0   MisRate:0.00%    MPKI:0.00
PC:15058     Total:7      MisBP:0   MisRate:0.00%    MPKI:0.00
PC:15056     Total:7      MisBP:0   MisRate:0.00%    MPKI:0.00
PC:15054     Total:7      MisBP:0   MisRate:0.00%    MPKI:0.00
PC:11916     Total:1009704      MisBP:0   MisRate:0.00%    MPKI:0.00
PC:15052     Total:7      MisBP:0   MisRate:0.00%    MPKI:0.00
PC:15050     Total:7      MisBP:0   MisRate:0.00%    MPKI:0.00
PC:1504c     Total:7      MisBP:0   MisRate:0.00%    MPKI:0.00
PC:1914c     Total:3      MisBP:0   MisRate:0.00%    MPKI:0.00
PC:15a0e     Total:9922      MisBP:0   MisRate:0.00%    MPKI:0.00
PC:14bfc     Total:4378      MisBP:0   MisRate:0.00%    MPKI:0.00
PC:1507c     Total:628831      MisBP:0   MisRate:0.00%    MPKI:0.00
PC:1508a     Total:615817      MisBP:0   MisRate:0.00%    MPKI:0.00
PC:1194c     Total:2136420      MisBP:0   MisRate:0.00%    MPKI:0.00
PC:15088     Total:616493      MisBP:0   MisRate:0.00%    MPKI:0.00
PC:15086     Total:617223      MisBP:0   MisRate:0.00%    MPKI:0.00
PC:11948     Total:2145183      MisBP:0   MisRate:0.00%    MPKI:0.00
PC:15082     Total:617417      MisBP:0   MisRate:0.00%    MPKI:0.00
PC:15080     Total:617630      MisBP:0   MisRate:0.00%    MPKI:0.00
PC:11942     Total:2154626      MisBP:0   MisRate:0.00%    MPKI:0.00
PC:16984     Total:5      MisBP:0   MisRate:0.00%    MPKI:0.00
PC:1507e     Total:628752      MisBP:0   MisRate:0.00%    MPKI:0.00
PC:11940     Total:2159876      MisBP:0   MisRate:0.00%    MPKI:0.00
PC:15e66     Total:10058      MisBP:0   MisRate:0.00%    MPKI:0.00
PC:168ba     Total:1      MisBP:0   MisRate:0.00%    MPKI:0.00
PC:11878     Total:26      MisBP:0   MisRate:0.00%    MPKI:0.00
PC:1193e     Total:2214943      MisBP:0   MisRate:0.00%    MPKI:0.00
PC:16980     Total:5      MisBP:0   MisRate:0.00%    MPKI:0.00
PC:1507a     Total:629244      MisBP:0   MisRate:0.00%    MPKI:0.00
PC:1193c     Total:2222161      MisBP:0   MisRate:0.00%    MPKI:0.00
PC:15078     Total:629450      MisBP:0   MisRate:0.00%    MPKI:0.00
PC:15076     Total:630764      MisBP:0   MisRate:0.00%    MPKI:0.00
PC:11938     Total:2313689      MisBP:0   MisRate:0.00%    MPKI:0.00
PC:15074     Total:630815      MisBP:0   MisRate:0.00%    MPKI:0.00
PC:15070     Total:1262924      MisBP:0   MisRate:0.00%    MPKI:0.00
PC:15a00     Total:9882      MisBP:0   MisRate:0.00%    MPKI:0.00
PC:1dc32     Total:2      MisBP:0   MisRate:0.00%    MPKI:0.00
PC:16432     Total:10116      MisBP:0   MisRate:0.00%    MPKI:0.00
PC:114b6     Total:24      MisBP:0   MisRate:0.00%    MPKI:0.00
PC:164f8     Total:9996      MisBP:0   MisRate:0.00%    MPKI:0.00
PC:10ee2     Total:114      MisBP:0   MisRate:0.00%    MPKI:0.00
PC:15e5e     Total:10078      MisBP:0   MisRate:0.00%    MPKI:0.00
PC:14bf0     Total:200      MisBP:0   MisRate:0.00%    MPKI:0.00
PC:1642e     Total:10113      MisBP:0   MisRate:0.00%    MPKI:0.00
PC:114b2     Total:24      MisBP:0   MisRate:0.00%    MPKI:0.00
PC:164f4     Total:9973      MisBP:0   MisRate:0.00%    MPKI:0.00
PC:10ede     Total:114      MisBP:0   MisRate:0.00%    MPKI:0.00
PC:15e5a     Total:10068      MisBP:0   MisRate:0.00%    MPKI:0.00
PC:18bf0     Total:5272      MisBP:0   MisRate:0.00%    MPKI:0.00
PC:14bee     Total:100      MisBP:0   MisRate:0.00%    MPKI:0.00
PC:18bea     Total:14507      MisBP:0   MisRate:0.00%    MPKI:0.00
PC:1dc2c     Total:4      MisBP:0   MisRate:0.00%    MPKI:0.00
PC:1642c     Total:10113      MisBP:0   MisRate:0.00%    MPKI:0.00
PC:114b0     Total:24      MisBP:0   MisRate:0.00%    MPKI:0.00
PC:164f2     Total:9973      MisBP:0   MisRate:0.00%    MPKI:0.00
PC:10edc     Total:2      MisBP:0   MisRate:0.00%    MPKI:0.00
PC:15f1e     Total:9934      MisBP:0   MisRate:0.00%    MPKI:0.00
PC:15e58     Total:10080      MisBP:0   MisRate:0.00%    MPKI:0.00
PC:141c0     Total:5      MisBP:0   MisRate:0.00%    MPKI:0.00
PC:1913c     Total:3      MisBP:0   MisRate:0.00%    MPKI:0.00
PC:14bf8     Total:8      MisBP:0   MisRate:0.00%    MPKI:0.00
PC:14bfa     Total:4378      MisBP:0   MisRate:0.00%    MPKI:0.00
PC:18bf6     Total:5259      MisBP:0   MisRate:0.00%    MPKI:0.00
PC:16438     Total:10125      MisBP:0   MisRate:0.00%    MPKI:0.00
PC:114bc     Total:1125754      MisBP:0   MisRate:0.00%    MPKI:0.00
PC:10ee8     Total:114      MisBP:0   MisRate:0.00%    MPKI:0.00
PC:15f2a     Total:9923      MisBP:0   MisRate:0.00%    MPKI:0.00
PC:15e64     Total:10059      MisBP:0   MisRate:0.00%    MPKI:0.00
PC:141cc     Total:5      MisBP:0   MisRate:0.00%    MPKI:0.00
PC:1920e     Total:4      MisBP:0   MisRate:0.00%    MPKI:0.00
PC:19148     Total:3      MisBP:0   MisRate:0.00%    MPKI:0.00
PC:15a0a     Total:9894      MisBP:0   MisRate:0.00%    MPKI:0.00
PC:16288     Total:9888      MisBP:0   MisRate:0.00%    MPKI:0.00
PC:18bf4     Total:5263      MisBP:0   MisRate:0.00%    MPKI:0.00
PC:16436     Total:10127      MisBP:0   MisRate:0.00%    MPKI:0.00
PC:10ee6     Total:114      MisBP:0   MisRate:0.00%    MPKI:0.00
PC:15f28     Total:9923      MisBP:0   MisRate:0.00%    MPKI:0.00
PC:15e62     Total:10078      MisBP:0   MisRate:0.00%    MPKI:0.00
PC:16434     Total:10112      MisBP:0   MisRate:0.00%    MPKI:0.00
PC:114b8     Total:24      MisBP:0   MisRate:0.00%    MPKI:0.00
PC:164fa     Total:9996      MisBP:0   MisRate:0.00%    MPKI:0.00
PC:141c8     Total:5      MisBP:0   MisRate:0.00%    MPKI:0.00
PC:19144     Total:3      MisBP:0   MisRate:0.00%    MPKI:0.00
PC:14bf4     Total:100      MisBP:0   MisRate:0.00%    MPKI:0.00
PC:15592     Total:9786      MisBP:0   MisRate:0.00%    MPKI:0.00
PC:2938c     Total:34      MisBP:0   MisRate:0.00%    MPKI:0.00
PC:15284     Total:139      MisBP:0   MisRate:0.00%    MPKI:0.00
PC:12ddc     Total:51      MisBP:0   MisRate:0.00%    MPKI:0.00
PC:1559a     Total:9784      MisBP:0   MisRate:0.00%    MPKI:0.00
PC:12dda     Total:51      MisBP:0   MisRate:0.00%    MPKI:0.00
PC:29388     Total:34      MisBP:0   MisRate:0.00%    MPKI:0.00
PC:12dd8     Total:51      MisBP:0   MisRate:0.00%    MPKI:0.00
PC:15596     Total:9786      MisBP:0   MisRate:0.00%    MPKI:0.00
PC:12dd6     Total:51      MisBP:0   MisRate:0.00%    MPKI:0.00
PC:29384     Total:14      MisBP:0   MisRate:0.00%    MPKI:0.00
PC:1527c     Total:9      MisBP:0   MisRate:0.00%    MPKI:0.00
PC:12dd4     Total:51      MisBP:0   MisRate:0.00%    MPKI:0.00
PC:12dde     Total:55      MisBP:0   MisRate:0.00%    MPKI:0.00
PC:12dd0     Total:51      MisBP:0   MisRate:0.00%    MPKI:0.00
PC:1558e     Total:9786      MisBP:0   MisRate:0.00%    MPKI:0.00
PC:12dcc     Total:45      MisBP:0   MisRate:0.00%    MPKI:0.00
PC:1558a     Total:9786      MisBP:0   MisRate:0.00%    MPKI:0.00
PC:12dca     Total:45      MisBP:0   MisRate:0.00%    MPKI:0.00
PC:29378     Total:16      MisBP:0   MisRate:0.00%    MPKI:0.00
PC:15270     Total:9      MisBP:0   MisRate:0.00%    MPKI:0.00
PC:12dc6     Total:45      MisBP:0   MisRate:0.00%    MPKI:0.00
PC:29374     Total:16      MisBP:0   MisRate:0.00%    MPKI:0.00
PC:12dc2     Total:44      MisBP:0   MisRate:0.00%    MPKI:0.00
PC:29370     Total:16      MisBP:0   MisRate:0.00%    MPKI:0.00
PC:2939c     Total:17      MisBP:0   MisRate:0.00%    MPKI:0.00
PC:12dfe     Total:213      MisBP:0   MisRate:0.00%    MPKI:0.00
PC:293ac     Total:17      MisBP:0   MisRate:0.00%    MPKI:0.00
PC:152a4     Total:13      MisBP:0   MisRate:0.00%    MPKI:0.00
PC:12dfc     Total:213      MisBP:0   MisRate:0.00%    MPKI:0.00
PC:155ba     Total:9805      MisBP:0   MisRate:0.00%    MPKI:0.00
PC:12dfa     Total:213      MisBP:0   MisRate:0.00%    MPKI:0.00
PC:293a8     Total:34      MisBP:0   MisRate:0.00%    MPKI:0.00
PC:152a0     Total:14      MisBP:0   MisRate:0.00%    MPKI:0.00
PC:12df8     Total:213      MisBP:0   MisRate:0.00%    MPKI:0.00
PC:155b6     Total:9805      MisBP:0   MisRate:0.00%    MPKI:0.00
PC:155b2     Total:9796      MisBP:0   MisRate:0.00%    MPKI:0.00
PC:155ae     Total:9796      MisBP:0   MisRate:0.00%    MPKI:0.00
PC:12dbe     Total:46      MisBP:0   MisRate:0.00%    MPKI:0.00
PC:15294     Total:15      MisBP:0   MisRate:0.00%    MPKI:0.00
PC:155aa     Total:9799      MisBP:0   MisRate:0.00%    MPKI:0.00
PC:29398     Total:34      MisBP:0   MisRate:0.00%    MPKI:0.00
PC:15290     Total:146      MisBP:0   MisRate:0.00%    MPKI:0.00
PC:155a6     Total:9799      MisBP:0   MisRate:0.00%    MPKI:0.00
PC:12de6     Total:53      MisBP:0   MisRate:0.00%    MPKI:0.00
PC:29394     Total:34      MisBP:0   MisRate:0.00%    MPKI:0.00
PC:1528c     Total:146      MisBP:0   MisRate:0.00%    MPKI:0.00
PC:12de2     Total:53      MisBP:0   MisRate:0.00%    MPKI:0.00
PC:29390     Total:17      MisBP:0   MisRate:0.00%    MPKI:0.00
PC:15288     Total:292      MisBP:0   MisRate:0.00%    MPKI:0.00
PC:18cc2     Total:153      MisBP:0   MisRate:0.00%    MPKI:0.00
PC:16568     Total:1      MisBP:0   MisRate:0.00%    MPKI:0.00
PC:11526     Total:1207680      MisBP:0   MisRate:0.00%    MPKI:0.00
PC:16562     Total:1      MisBP:0   MisRate:0.00%    MPKI:0.00
PC:11520     Total:1207745      MisBP:0   MisRate:0.00%    MPKI:0.00
PC:18cfa     Total:15528      MisBP:0   MisRate:0.00%    MPKI:0.00
PC:1653c     Total:9969      MisBP:0   MisRate:0.00%    MPKI:0.00
PC:114fa     Total:1217926      MisBP:0   MisRate:0.00%    MPKI:0.00
PC:16526     Total:10005      MisBP:0   MisRate:0.00%    MPKI:0.00
PC:114e4     Total:4333837      MisBP:0   MisRate:0.00%    MPKI:0.00
PC:18cda     Total:16117      MisBP:0   MisRate:0.00%    MPKI:0.00
PC:1651c     Total:9986      MisBP:0   MisRate:0.00%    MPKI:0.00
PC:114da     Total:1062767      MisBP:0   MisRate:0.00%    MPKI:0.00
PC:18d26     Total:4735      MisBP:0   MisRate:0.00%    MPKI:0.00
PC:16504     Total:9963      MisBP:0   MisRate:0.00%    MPKI:0.00
PC:114c2     Total:1055824      MisBP:0   MisRate:0.00%    MPKI:0.00
PC:18cbe     Total:153      MisBP:0   MisRate:0.00%    MPKI:0.00
PC:16500     Total:9963      MisBP:0   MisRate:0.00%    MPKI:0.00
PC:18cba     Total:155      MisBP:0   MisRate:0.00%    MPKI:0.00
PC:164fc     Total:9995      MisBP:0   MisRate:0.00%    MPKI:0.00
PC:114ba     Total:1127887      MisBP:0   MisRate:0.00%    MPKI:0.00
PC:1dc24     Total:12      MisBP:0   MisRate:0.00%    MPKI:0.00
PC:18be2     Total:14515      MisBP:0   MisRate:0.00%    MPKI:0.00
PC:18ca8     Total:3770      MisBP:0   MisRate:0.00%    MPKI:0.00
PC:164ea     Total:9973      MisBP:0   MisRate:0.00%    MPKI:0.00
PC:12db4     Total:41      MisBP:0   MisRate:0.00%    MPKI:0.00
PC:2936c     Total:16      MisBP:0   MisRate:0.00%    MPKI:0.00
PC:15264     Total:9      MisBP:0   MisRate:0.00%    MPKI:0.00
PC:12dbc     Total:46      MisBP:0   MisRate:0.00%    MPKI:0.00
PC:1557a     Total:9787      MisBP:0   MisRate:0.00%    MPKI:0.00
PC:12dba     Total:41      MisBP:0   MisRate:0.00%    MPKI:0.00
PC:29368     Total:16      MisBP:0   MisRate:0.00%    MPKI:0.00
PC:15260     Total:9      MisBP:0   MisRate:0.00%    MPKI:0.00
PC:12db8     Total:41      MisBP:0   MisRate:0.00%    MPKI:0.00
PC:12db6     Total:41      MisBP:0   MisRate:0.00%    MPKI:0.00
PC:29364     Total:16      MisBP:0   MisRate:0.00%    MPKI:0.00
PC:1525c     Total:9      MisBP:0   MisRate:0.00%    MPKI:0.00
PC:155be     Total:9805      MisBP:0   MisRate:0.00%    MPKI:0.00
PC:15572     Total:9786      MisBP:0   MisRate:0.00%    MPKI:0.00
PC:154ba     Total:118      MisBP:0   MisRate:0.00%    MPKI:0.00
PC:154a6     Total:11      MisBP:0   MisRate:0.00%    MPKI:0.00
PC:1549e     Total:11      MisBP:0   MisRate:0.00%    MPKI:0.00
PC:1549a     Total:11      MisBP:0   MisRate:0.00%    MPKI:0.00
PC:15496     Total:9793      MisBP:0   MisRate:0.00%    MPKI:0.00
PC:15492     Total:9800      MisBP:0   MisRate:0.00%    MPKI:0.00
PC:1548e     Total:9800      MisBP:0   MisRate:0.00%    MPKI:0.00
PC:15486     Total:9800      MisBP:0   MisRate:0.00%    MPKI:0.00
PC:15482     Total:19600      MisBP:0   MisRate:0.00%    MPKI:0.00
PC:1547e     Total:9800      MisBP:0   MisRate:0.00%    MPKI:0.00
PC:293fc     Total:114      MisBP:0   MisRate:0.00%    MPKI:0.00
PC:1561a     Total:9879      MisBP:0   MisRate:0.00%    MPKI:0.00
PC:29408     Total:472      MisBP:0   MisRate:0.00%    MPKI:0.00
PC:15300     Total:585      MisBP:0   MisRate:0.00%    MPKI:0.00
PC:12e5a     Total:121      MisBP:0   MisRate:0.00%    MPKI:0.00
PC:15616     Total:9879      MisBP:0   MisRate:0.00%    MPKI:0.00
PC:152fc     Total:595      MisBP:0   MisRate:0.00%    MPKI:0.00
PC:12e54     Total:109      MisBP:0   MisRate:0.00%    MPKI:0.00
PC:15612     Total:9879      MisBP:0   MisRate:0.00%    MPKI:0.00
PC:29400     Total:113      MisBP:0   MisRate:0.00%    MPKI:0.00
PC:152f8     Total:596      MisBP:0   MisRate:0.00%    MPKI:0.00
PC:12e52     Total:109      MisBP:0   MisRate:0.00%    MPKI:0.00
PC:12e4e     Total:109      MisBP:0   MisRate:0.00%    MPKI:0.00
PC:1561e     Total:9879      MisBP:0   MisRate:0.00%    MPKI:0.00
PC:152f4     Total:596      MisBP:0   MisRate:0.00%    MPKI:0.00
PC:12e4a     Total:109      MisBP:0   MisRate:0.00%    MPKI:0.00
PC:293f8     Total:114      MisBP:0   MisRate:0.00%    MPKI:0.00
PC:12e48     Total:109      MisBP:0   MisRate:0.00%    MPKI:0.00
PC:15606     Total:9846      MisBP:0   MisRate:0.00%    MPKI:0.00
PC:12e46     Total:109      MisBP:0   MisRate:0.00%    MPKI:0.00
PC:293f4     Total:4      MisBP:0   MisRate:0.00%    MPKI:0.00
PC:152ec     Total:89      MisBP:0   MisRate:0.00%    MPKI:0.00
PC:15602     Total:9846      MisBP:0   MisRate:0.00%    MPKI:0.00
PC:12e42     Total:109      MisBP:0   MisRate:0.00%    MPKI:0.00
PC:293f0     Total:4      MisBP:0   MisRate:0.00%    MPKI:0.00
PC:29418     Total:472      MisBP:0   MisRate:0.00%    MPKI:0.00
PC:2973c     Total:103      MisBP:0   MisRate:0.00%    MPKI:0.00
PC:29420     Total:472      MisBP:0   MisRate:0.00%    MPKI:0.00
PC:15318     Total:12      MisBP:0   MisRate:0.00%    MPKI:0.00
PC:12e72     Total:49448      MisBP:0   MisRate:0.00%    MPKI:0.00
PC:15630     Total:9892      MisBP:0   MisRate:0.00%    MPKI:0.00
PC:29738     Total:103      MisBP:0   MisRate:0.00%    MPKI:0.00
PC:2941c     Total:472      MisBP:0   MisRate:0.00%    MPKI:0.00
PC:15314     Total:12      MisBP:0   MisRate:0.00%    MPKI:0.00
PC:1562c     Total:9892      MisBP:0   MisRate:0.00%    MPKI:0.00
PC:29734     Total:103      MisBP:0   MisRate:0.00%    MPKI:0.00
PC:1562a     Total:9892      MisBP:0   MisRate:0.00%    MPKI:0.00
PC:12e40     Total:109      MisBP:0   MisRate:0.00%    MPKI:0.00
PC:15310     Total:12      MisBP:0   MisRate:0.00%    MPKI:0.00
PC:12e6a     Total:49450      MisBP:0   MisRate:0.00%    MPKI:0.00
PC:12e68     Total:49450      MisBP:0   MisRate:0.00%    MPKI:0.00
PC:15626     Total:9893      MisBP:0   MisRate:0.00%    MPKI:0.00
PC:29414     Total:472      MisBP:0   MisRate:0.00%    MPKI:0.00
PC:12e66     Total:15      MisBP:0   MisRate:0.00%    MPKI:0.00
PC:15624     Total:9893      MisBP:0   MisRate:0.00%    MPKI:0.00
PC:2972c     Total:103      MisBP:0   MisRate:0.00%    MPKI:0.00
PC:12e64     Total:15      MisBP:0   MisRate:0.00%    MPKI:0.00
PC:15622     Total:9893      MisBP:0   MisRate:0.00%    MPKI:0.00
PC:12e60     Total:15      MisBP:0   MisRate:0.00%    MPKI:0.00
PC:293bc     Total:122      MisBP:0   MisRate:0.00%    MPKI:0.00
PC:152c4     Total:16      MisBP:0   MisRate:0.00%    MPKI:0.00
PC:12e1c     Total:6525      MisBP:0   MisRate:0.00%    MPKI:0.00
PC:155da     Total:9828      MisBP:0   MisRate:0.00%    MPKI:0.00
PC:12e18     Total:6670      MisBP:0   MisRate:0.00%    MPKI:0.00
PC:155d6     Total:9820      MisBP:0   MisRate:0.00%    MPKI:0.00
PC:12e14     Total:20081      MisBP:0   MisRate:0.00%    MPKI:0.00
PC:155d2     Total:9824      MisBP:0   MisRate:0.00%    MPKI:0.00
PC:12e12     Total:6741      MisBP:0   MisRate:0.00%    MPKI:0.00
PC:293c0     Total:122      MisBP:0   MisRate:0.00%    MPKI:0.00
PC:12e10     Total:6724      MisBP:0   MisRate:0.00%    MPKI:0.00
PC:155ce     Total:9824      MisBP:0   MisRate:0.00%    MPKI:0.00
PC:12e0e     Total:6725      MisBP:0   MisRate:0.00%    MPKI:0.00
PC:293cc     Total:113      MisBP:0   MisRate:0.00%    MPKI:0.00
PC:12e0c     Total:6725      MisBP:0   MisRate:0.00%    MPKI:0.00
PC:155ca     Total:9824      MisBP:0   MisRate:0.00%    MPKI:0.00
PC:12e0a     Total:6725      MisBP:0   MisRate:0.00%    MPKI:0.00
PC:293b8     Total:122      MisBP:0   MisRate:0.00%    MPKI:0.00
PC:152b0     Total:13      MisBP:0   MisRate:0.00%    MPKI:0.00
PC:12e06     Total:6707      MisBP:0   MisRate:0.00%    MPKI:0.00
PC:293b4     Total:244      MisBP:0   MisRate:0.00%    MPKI:0.00
PC:152ac     Total:13      MisBP:0   MisRate:0.00%    MPKI:0.00
PC:12e02     Total:211      MisBP:0   MisRate:0.00%    MPKI:0.00
PC:293b0     Total:17      MisBP:0   MisRate:0.00%    MPKI:0.00
PC:12e00     Total:211      MisBP:0   MisRate:0.00%    MPKI:0.00
PC:152d4     Total:16      MisBP:0   MisRate:0.00%    MPKI:0.00
PC:155fe     Total:9852      MisBP:0   MisRate:0.00%    MPKI:0.00
PC:155fa     Total:9839      MisBP:0   MisRate:0.00%    MPKI:0.00
PC:12e38     Total:109      MisBP:0   MisRate:0.00%    MPKI:0.00
PC:155f6     Total:9839      MisBP:0   MisRate:0.00%    MPKI:0.00
PC:293e4     Total:2      MisBP:0   MisRate:0.00%    MPKI:0.00
PC:152dc     Total:16      MisBP:0   MisRate:0.00%    MPKI:0.00
PC:155f2     Total:9839      MisBP:0   MisRate:0.00%    MPKI:0.00
PC:293e0     Total:4      MisBP:0   MisRate:0.00%    MPKI:0.00
PC:152d8     Total:16      MisBP:0   MisRate:0.00%    MPKI:0.00
PC:155ee     Total:9839      MisBP:0   MisRate:0.00%    MPKI:0.00
PC:293dc     Total:4      MisBP:0   MisRate:0.00%    MPKI:0.00
PC:114a8     Total:3000103      MisBP:0   MisRate:0.00%    MPKI:0.00
PC:293d8     Total:2      MisBP:0   MisRate:0.00%    MPKI:0.00
PC:12e26     Total:1      MisBP:0   MisRate:0.00%    MPKI:0.00
PC:293d4     Total:2      MisBP:0   MisRate:0.00%    MPKI:0.00
PC:152cc     Total:16      MisBP:0   MisRate:0.00%    MPKI:0.00
PC:12e24     Total:1      MisBP:0   MisRate:0.00%    MPKI:0.00
PC:155e2     Total:9828      MisBP:0   MisRate:0.00%    MPKI:0.00
PC:12e22     Total:1      MisBP:0   MisRate:0.00%    MPKI:0.00
PC:152c8     Total:16      MisBP:0   MisRate:0.00%    MPKI:0.00
PC:12e20     Total:6525      MisBP:0   MisRate:0.00%    MPKI:0.00
PC:155de     Total:9828      MisBP:0   MisRate:0.00%    MPKI:0.00
PC:12e1e     Total:6525      MisBP:0   MisRate:0.00%    MPKI:0.00
PC:1631c     Total:9936      MisBP:0   MisRate:0.00%    MPKI:0.00
PC:1633c     Total:9916      MisBP:0   MisRate:0.00%    MPKI:0.00
PC:16338     Total:9916      MisBP:0   MisRate:0.00%    MPKI:0.00
PC:16334     Total:9916      MisBP:0   MisRate:0.00%    MPKI:0.00
PC:16332     Total:9916      MisBP:0   MisRate:0.00%    MPKI:0.00
PC:1632e     Total:9916      MisBP:0   MisRate:0.00%    MPKI:0.00
PC:1632c     Total:9917      MisBP:0   MisRate:0.00%    MPKI:0.00
PC:1632a     Total:9953      MisBP:0   MisRate:0.00%    MPKI:0.00
PC:16328     Total:9951      MisBP:0   MisRate:0.00%    MPKI:0.00
PC:16326     Total:9936      MisBP:0   MisRate:0.00%    MPKI:0.00
PC:16324     Total:9936      MisBP:0   MisRate:0.00%    MPKI:0.00
PC:16322     Total:9937      MisBP:0   MisRate:0.00%    MPKI:0.00
PC:1631e     Total:9934      MisBP:0   MisRate:0.00%    MPKI:0.00
PC:1633e     Total:9916      MisBP:0   MisRate:0.00%    MPKI:0.00
PC:1631a     Total:9942      MisBP:0   MisRate:0.00%    MPKI:0.00
PC:16316     Total:9951      MisBP:0   MisRate:0.00%    MPKI:0.00
PC:16312     Total:9953      MisBP:0   MisRate:0.00%    MPKI:0.00
PC:16310     Total:9956      MisBP:0   MisRate:0.00%    MPKI:0.00
PC:1630c     Total:9956      MisBP:0   MisRate:0.00%    MPKI:0.00
PC:16308     Total:9957      MisBP:0   MisRate:0.00%    MPKI:0.00
PC:16306     Total:9957      MisBP:0   MisRate:0.00%    MPKI:0.00
PC:16304     Total:9957      MisBP:0   MisRate:0.00%    MPKI:0.00
PC:16300     Total:9959      MisBP:0   MisRate:0.00%    MPKI:0.00
PC:162fe     Total:9988      MisBP:0   MisRate:0.00%    MPKI:0.00
PC:162fc     Total:9988      MisBP:0   MisRate:0.00%    MPKI:0.00
PC:1635c     Total:9925      MisBP:0   MisRate:0.00%    MPKI:0.00
PC:16378     Total:9894      MisBP:0   MisRate:0.00%    MPKI:0.00
PC:18b32     Total:34      MisBP:0   MisRate:0.00%    MPKI:0.00
PC:16374     Total:9894      MisBP:0   MisRate:0.00%    MPKI:0.00
PC:16370     Total:9894      MisBP:0   MisRate:0.00%    MPKI:0.00
PC:18b2c     Total:34      MisBP:0   MisRate:0.00%    MPKI:0.00
PC:1636e     Total:9894      MisBP:0   MisRate:0.00%    MPKI:0.00
PC:18b28     Total:356      MisBP:0   MisRate:0.00%    MPKI:0.00
PC:1636a     Total:9894      MisBP:0   MisRate:0.00%    MPKI:0.00
PC:16366     Total:9932      MisBP:0   MisRate:0.00%    MPKI:0.00
PC:16364     Total:9932      MisBP:0   MisRate:0.00%    MPKI:0.00
PC:16362     Total:9932      MisBP:0   MisRate:0.00%    MPKI:0.00
PC:1635e     Total:9925      MisBP:0   MisRate:0.00%    MPKI:0.00
PC:162fa     Total:10002      MisBP:0   MisRate:0.00%    MPKI:0.00
PC:16358     Total:9925      MisBP:0   MisRate:0.00%    MPKI:0.00
PC:16354     Total:9929      MisBP:0   MisRate:0.00%    MPKI:0.00
PC:16352     Total:9929      MisBP:0   MisRate:0.00%    MPKI:0.00
PC:16350     Total:9932      MisBP:0   MisRate:0.00%    MPKI:0.00
PC:1634e     Total:9912      MisBP:0   MisRate:0.00%    MPKI:0.00
PC:1634c     Total:9912      MisBP:0   MisRate:0.00%    MPKI:0.00
PC:1634a     Total:9912      MisBP:0   MisRate:0.00%    MPKI:0.00
PC:16348     Total:9912      MisBP:0   MisRate:0.00%    MPKI:0.00
PC:16346     Total:9912      MisBP:0   MisRate:0.00%    MPKI:0.00
PC:16344     Total:9897      MisBP:0   MisRate:0.00%    MPKI:0.00
PC:16340     Total:9897      MisBP:0   MisRate:0.00%    MPKI:0.00
PC:162a2     Total:9948      MisBP:0   MisRate:0.00%    MPKI:0.00
PC:162be     Total:10009      MisBP:0   MisRate:0.00%    MPKI:0.00
PC:162bc     Total:10009      MisBP:0   MisRate:0.00%    MPKI:0.00
PC:162ba     Total:9997      MisBP:0   MisRate:0.00%    MPKI:0.00
PC:162b6     Total:9997      MisBP:0   MisRate:0.00%    MPKI:0.00
PC:162b4     Total:9999      MisBP:0   MisRate:0.00%    MPKI:0.00
PC:162b2     Total:9999      MisBP:0   MisRate:0.00%    MPKI:0.00
PC:162b0     Total:9964      MisBP:0   MisRate:0.00%    MPKI:0.00
PC:162ac     Total:9965      MisBP:0   MisRate:0.00%    MPKI:0.00
PC:162aa     Total:9965      MisBP:0   MisRate:0.00%    MPKI:0.00
PC:162a8     Total:9966      MisBP:0   MisRate:0.00%    MPKI:0.00
PC:162a6     Total:9948      MisBP:0   MisRate:0.00%    MPKI:0.00
PC:162a4     Total:9948      MisBP:0   MisRate:0.00%    MPKI:0.00
PC:162c0     Total:9953      MisBP:0   MisRate:0.00%    MPKI:0.00
PC:162a0     Total:9948      MisBP:0   MisRate:0.00%    MPKI:0.00
PC:1629e     Total:9917      MisBP:0   MisRate:0.00%    MPKI:0.00
PC:1629c     Total:9919      MisBP:0   MisRate:0.00%    MPKI:0.00
PC:1629a     Total:9915      MisBP:0   MisRate:0.00%    MPKI:0.00
PC:16296     Total:9919      MisBP:0   MisRate:0.00%    MPKI:0.00
PC:16294     Total:9919      MisBP:0   MisRate:0.00%    MPKI:0.00
PC:16292     Total:9919      MisBP:0   MisRate:0.00%    MPKI:0.00
PC:16290     Total:9900      MisBP:0   MisRate:0.00%    MPKI:0.00
PC:1628e     Total:9900      MisBP:0   MisRate:0.00%    MPKI:0.00
PC:1628c     Total:9900      MisBP:0   MisRate:0.00%    MPKI:0.00
PC:1628a     Total:9888      MisBP:0   MisRate:0.00%    MPKI:0.00
PC:162de     Total:9985      MisBP:0   MisRate:0.00%    MPKI:0.00
PC:162f8     Total:10004      MisBP:0   MisRate:0.00%    MPKI:0.00
PC:162f4     Total:10004      MisBP:0   MisRate:0.00%    MPKI:0.00
PC:162f2     Total:10004      MisBP:0   MisRate:0.00%    MPKI:0.00
PC:162ee     Total:10004      MisBP:0   MisRate:0.00%    MPKI:0.00
PC:162ec     Total:10004      MisBP:0   MisRate:0.00%    MPKI:0.00
PC:162ea     Total:10004      MisBP:0   MisRate:0.00%    MPKI:0.00
PC:162e8     Total:9990      MisBP:0   MisRate:0.00%    MPKI:0.00
PC:162e6     Total:9990      MisBP:0   MisRate:0.00%    MPKI:0.00
PC:162e4     Total:9988      MisBP:0   MisRate:0.00%    MPKI:0.00
PC:162e2     Total:9988      MisBP:0   MisRate:0.00%    MPKI:0.00
PC:162e0     Total:9985      MisBP:0   MisRate:0.00%    MPKI:0.00
PC:18b36     Total:32      MisBP:0   MisRate:0.00%    MPKI:0.00
PC:162da     Total:9970      MisBP:0   MisRate:0.00%    MPKI:0.00
PC:162d8     Total:9970      MisBP:0   MisRate:0.00%    MPKI:0.00
PC:162d6     Total:9970      MisBP:0   MisRate:0.00%    MPKI:0.00
PC:162d4     Total:9970      MisBP:0   MisRate:0.00%    MPKI:0.00
PC:162d2     Total:9958      MisBP:0   MisRate:0.00%    MPKI:0.00
PC:162ce     Total:9958      MisBP:0   MisRate:0.00%    MPKI:0.00
PC:162cc     Total:9958      MisBP:0   MisRate:0.00%    MPKI:0.00
PC:162ca     Total:9958      MisBP:0   MisRate:0.00%    MPKI:0.00
PC:162c8     Total:9953      MisBP:0   MisRate:0.00%    MPKI:0.00
PC:162c6     Total:9953      MisBP:0   MisRate:0.00%    MPKI:0.00
PC:162c4     Total:9953      MisBP:0   MisRate:0.00%    MPKI:0.00
PC:163da     Total:9989      MisBP:0   MisRate:0.00%    MPKI:0.00
PC:18bc8     Total:5876      MisBP:0   MisRate:0.00%    MPKI:0.00
PC:1640a     Total:10106      MisBP:0   MisRate:0.00%    MPKI:0.00
PC:18bc4     Total:11794      MisBP:0   MisRate:0.00%    MPKI:0.00
PC:1dc06     Total:1      MisBP:0   MisRate:0.00%    MPKI:0.00
PC:16406     Total:10106      MisBP:0   MisRate:0.00%    MPKI:0.00
PC:163f8     Total:10151      MisBP:0   MisRate:0.00%    MPKI:0.00
PC:18bb2     Total:6180      MisBP:0   MisRate:0.00%    MPKI:0.00
PC:1dbf4     Total:920      MisBP:0   MisRate:0.00%    MPKI:0.00
PC:163f4     Total:10099      MisBP:0   MisRate:0.00%    MPKI:0.00
PC:18ba4     Total:41      MisBP:0   MisRate:0.00%    MPKI:0.00
PC:163e6     Total:9996      MisBP:0   MisRate:0.00%    MPKI:0.00
PC:163e0     Total:9989      MisBP:0   MisRate:0.00%    MPKI:0.00
PC:1640e     Total:10105      MisBP:0   MisRate:0.00%    MPKI:0.00
PC:18b8c     Total:33      MisBP:0   MisRate:0.00%    MPKI:0.00
PC:163ce     Total:9988      MisBP:0   MisRate:0.00%    MPKI:0.00
PC:163cc     Total:9955      MisBP:0   MisRate:0.00%    MPKI:0.00
PC:18b88     Total:33      MisBP:0   MisRate:0.00%    MPKI:0.00
PC:163ca     Total:9955      MisBP:0   MisRate:0.00%    MPKI:0.00
PC:18b86     Total:25      MisBP:0   MisRate:0.00%    MPKI:0.00
PC:163c8     Total:9955      MisBP:0   MisRate:0.00%    MPKI:0.00
PC:18b84     Total:25      MisBP:0   MisRate:0.00%    MPKI:0.00
PC:163c6     Total:9941      MisBP:0   MisRate:0.00%    MPKI:0.00
PC:18b82     Total:25      MisBP:0   MisRate:0.00%    MPKI:0.00
PC:163c4     Total:9942      MisBP:0   MisRate:0.00%    MPKI:0.00
PC:164a0     Total:10010      MisBP:0   MisRate:0.00%    MPKI:0.00
PC:1dc16     Total:12      MisBP:0   MisRate:0.00%    MPKI:0.00
PC:18bd4     Total:5070      MisBP:0   MisRate:0.00%    MPKI:0.00
PC:18c9a     Total:7795      MisBP:0   MisRate:0.00%    MPKI:0.00
PC:164dc     Total:9979      MisBP:0   MisRate:0.00%    MPKI:0.00
PC:1149a     Total:3000224      MisBP:0   MisRate:0.00%    MPKI:0.00
PC:18c82     Total:15641      MisBP:0   MisRate:0.00%    MPKI:0.00
PC:164c4     Total:9970      MisBP:0   MisRate:0.00%    MPKI:0.00
PC:11482     Total:209      MisBP:0   MisRate:0.00%    MPKI:0.00
PC:18c64     Total:17191      MisBP:0   MisRate:0.00%    MPKI:0.00
PC:164a6     Total:10010      MisBP:0   MisRate:0.00%    MPKI:0.00
PC:18c5e     Total:17680      MisBP:0   MisRate:0.00%    MPKI:0.00
PC:18b80     Total:25      MisBP:0   MisRate:0.00%    MPKI:0.00
PC:1646c     Total:10014      MisBP:0   MisRate:0.00%    MPKI:0.00
PC:16464     Total:10026      MisBP:0   MisRate:0.00%    MPKI:0.00
PC:18c08     Total:52      MisBP:0   MisRate:0.00%    MPKI:0.00
PC:1644a     Total:10082      MisBP:0   MisRate:0.00%    MPKI:0.00
PC:18c04     Total:52      MisBP:0   MisRate:0.00%    MPKI:0.00
PC:16446     Total:10085      MisBP:0   MisRate:0.00%    MPKI:0.00
PC:1643a     Total:10122      MisBP:0   MisRate:0.00%    MPKI:0.00
PC:18bdc     Total:14582      MisBP:0   MisRate:0.00%    MPKI:0.00
PC:1641e     Total:10120      MisBP:0   MisRate:0.00%    MPKI:0.00
PC:18bcc     Total:5876      MisBP:0   MisRate:0.00%    MPKI:0.00
PC:1dc0e     Total:12      MisBP:0   MisRate:0.00%    MPKI:0.00
PC:18b4a     Total:29      MisBP:0   MisRate:0.00%    MPKI:0.00
PC:18b5c     Total:2772      MisBP:0   MisRate:0.00%    MPKI:0.00
PC:1639e     Total:9896      MisBP:0   MisRate:0.00%    MPKI:0.00
PC:1639a     Total:9896      MisBP:0   MisRate:0.00%    MPKI:0.00
PC:18b56     Total:4451      MisBP:0   MisRate:0.00%    MPKI:0.00
PC:16398     Total:9896      MisBP:0   MisRate:0.00%    MPKI:0.00
PC:16396     Total:9896      MisBP:0   MisRate:0.00%    MPKI:0.00
PC:18b52     Total:8902      MisBP:0   MisRate:0.00%    MPKI:0.00
PC:16394     Total:9912      MisBP:0   MisRate:0.00%    MPKI:0.00
PC:18b4e     Total:29      MisBP:0   MisRate:0.00%    MPKI:0.00
PC:16390     Total:9912      MisBP:0   MisRate:0.00%    MPKI:0.00
PC:18b4c     Total:29      MisBP:0   MisRate:0.00%    MPKI:0.00
PC:1638e     Total:9912      MisBP:0   MisRate:0.00%    MPKI:0.00
PC:163a0     Total:9896      MisBP:0   MisRate:0.00%    MPKI:0.00
PC:1638c     Total:9912      MisBP:0   MisRate:0.00%    MPKI:0.00
PC:18b46     Total:29      MisBP:0   MisRate:0.00%    MPKI:0.00
PC:16388     Total:9880      MisBP:0   MisRate:0.00%    MPKI:0.00
PC:16384     Total:9880      MisBP:0   MisRate:0.00%    MPKI:0.00
PC:18b40     Total:29      MisBP:0   MisRate:0.00%    MPKI:0.00
PC:16382     Total:9880      MisBP:0   MisRate:0.00%    MPKI:0.00
PC:18b3e     Total:31      MisBP:0   MisRate:0.00%    MPKI:0.00
PC:16380     Total:9880      MisBP:0   MisRate:0.00%    MPKI:0.00
PC:1637e     Total:9912      MisBP:0   MisRate:0.00%    MPKI:0.00
PC:18b3a     Total:31      MisBP:0   MisRate:0.00%    MPKI:0.00
PC:1637c     Total:9894      MisBP:0   MisRate:0.00%    MPKI:0.00
PC:163ae     Total:9904      MisBP:0   MisRate:0.00%    MPKI:0.00
PC:163c2     Total:9920      MisBP:0   MisRate:0.00%    MPKI:0.00
PC:18b7c     Total:28      MisBP:0   MisRate:0.00%    MPKI:0.00
PC:163be     Total:9922      MisBP:0   MisRate:0.00%    MPKI:0.00
PC:163ba     Total:9952      MisBP:0   MisRate:0.00%    MPKI:0.00
PC:18b76     Total:28      MisBP:0   MisRate:0.00%    MPKI:0.00
PC:163b8     Total:9952      MisBP:0   MisRate:0.00%    MPKI:0.00
PC:18b74     Total:28      MisBP:0   MisRate:0.00%    MPKI:0.00
PC:163b6     Total:9904      MisBP:0   MisRate:0.00%    MPKI:0.00
PC:18b70     Total:28      MisBP:0   MisRate:0.00%    MPKI:0.00
PC:163b2     Total:9904      MisBP:0   MisRate:0.00%    MPKI:0.00
PC:18b6c     Total:28      MisBP:0   MisRate:0.00%    MPKI:0.00
PC:16554     Total:1      MisBP:0   MisRate:0.00%    MPKI:0.00
PC:18b6a     Total:28      MisBP:0   MisRate:0.00%    MPKI:0.00
PC:163ac     Total:9904      MisBP:0   MisRate:0.00%    MPKI:0.00
PC:18b68     Total:28      MisBP:0   MisRate:0.00%    MPKI:0.00
PC:163aa     Total:9912      MisBP:0   MisRate:0.00%    MPKI:0.00
PC:18b66     Total:28      MisBP:0   MisRate:0.00%    MPKI:0.00
PC:163a8     Total:9890      MisBP:0   MisRate:0.00%    MPKI:0.00
PC:163a6     Total:9893      MisBP:0   MisRate:0.00%    MPKI:0.00
PC:163a4     Total:9896      MisBP:0   MisRate:0.00%    MPKI:0.00
PC:18b60     Total:9356      MisBP:0   MisRate:0.00%    MPKI:0.00
PC:163a2     Total:9896      MisBP:0   MisRate:0.00%    MPKI:0.00
PC:18b5e     Total:4678      MisBP:0   MisRate:0.00%    MPKI:0.00
PC:15ec2     Total:9957      MisBP:0   MisRate:0.00%    MPKI:0.00
PC:10f7c     Total:124      MisBP:0   MisRate:0.00%    MPKI:0.00
PC:15fbe     Total:9930      MisBP:0   MisRate:0.00%    MPKI:0.00
PC:11954     Total:7      MisBP:0   MisRate:0.00%    MPKI:0.00
PC:151c0     Total:1      MisBP:0   MisRate:0.00%    MPKI:0.00
PC:18c3c     Total:4779      MisBP:0   MisRate:0.00%    MPKI:0.00
PC:1647e     Total:10024      MisBP:0   MisRate:0.00%    MPKI:0.00
PC:11502     Total:1194683      MisBP:0   MisRate:0.00%    MPKI:0.00
PC:16544     Total:9946      MisBP:0   MisRate:0.00%    MPKI:0.00
PC:15eaa     Total:9958      MisBP:0   MisRate:0.00%    MPKI:0.00
PC:18c54     Total:14800      MisBP:0   MisRate:0.00%    MPKI:0.00
PC:16496     Total:9984      MisBP:0   MisRate:0.00%    MPKI:0.00
PC:11454     Total:236      MisBP:0   MisRate:0.00%    MPKI:0.00
PC:15ec4     Total:9957      MisBP:0   MisRate:0.00%    MPKI:0.00
PC:151f4     Total:3      MisBP:0   MisRate:0.00%    MPKI:0.00
PC:164ca     Total:10009      MisBP:0   MisRate:0.00%    MPKI:0.00
PC:11488     Total:3000229      MisBP:0   MisRate:0.00%    MPKI:0.00
PC:1154e     Total:51      MisBP:0   MisRate:0.00%    MPKI:0.00
PC:10f7a     Total:126      MisBP:0   MisRate:0.00%    MPKI:0.00
PC:15ef6     Total:9985      MisBP:0   MisRate:0.00%    MPKI:0.00
PC:18c3a     Total:4787      MisBP:0   MisRate:0.00%    MPKI:0.00
PC:1647c     Total:10014      MisBP:0   MisRate:0.00%    MPKI:0.00
PC:11500     Total:1194774      MisBP:0   MisRate:0.00%    MPKI:0.00
PC:15ea8     Total:9958      MisBP:0   MisRate:0.00%    MPKI:0.00
PC:18c52     Total:14803      MisBP:0   MisRate:0.00%    MPKI:0.00
PC:10f7e     Total:124      MisBP:0   MisRate:0.00%    MPKI:0.00
PC:15fc6     Total:9958      MisBP:0   MisRate:0.00%    MPKI:0.00
PC:1dc0c     Total:60      MisBP:0   MisRate:0.00%    MPKI:0.00
PC:18c90     Total:3894      MisBP:0   MisRate:0.00%    MPKI:0.00
PC:164d2     Total:9983      MisBP:0   MisRate:0.00%    MPKI:0.00
PC:11490     Total:6000458      MisBP:0   MisRate:0.00%    MPKI:0.00
PC:11556     Total:33646      MisBP:0   MisRate:0.00%    MPKI:0.00
PC:10f82     Total:118      MisBP:0   MisRate:0.00%    MPKI:0.00
PC:15fc4     Total:9958      MisBP:0   MisRate:0.00%    MPKI:0.00
PC:15efe     Total:9982      MisBP:0   MisRate:0.00%    MPKI:0.00
PC:10ebc     Total:112      MisBP:0   MisRate:0.00%    MPKI:0.00
PC:15eb0     Total:9958      MisBP:0   MisRate:0.00%    MPKI:0.00
PC:15ec8     Total:9972      MisBP:0   MisRate:0.00%    MPKI:0.00
PC:16494     Total:9989      MisBP:0   MisRate:0.00%    MPKI:0.00
PC:15efa     Total:9983      MisBP:0   MisRate:0.00%    MPKI:0.00
PC:10eb8     Total:112      MisBP:0   MisRate:0.00%    MPKI:0.00
PC:36244     Total:19      MisBP:0   MisRate:0.00%    MPKI:0.00
PC:18c3e     Total:427      MisBP:0   MisRate:0.00%    MPKI:0.00
PC:16480     Total:9980      MisBP:0   MisRate:0.00%    MPKI:0.00
PC:11504     Total:1194675      MisBP:0   MisRate:0.00%    MPKI:0.00
PC:15eac     Total:9958      MisBP:0   MisRate:0.00%    MPKI:0.00
PC:16498     Total:9986      MisBP:0   MisRate:0.00%    MPKI:0.00
PC:11456     Total:236      MisBP:0   MisRate:0.00%    MPKI:0.00
PC:1151c     Total:1207779      MisBP:0   MisRate:0.00%    MPKI:0.00
PC:1655e     Total:1      MisBP:0   MisRate:0.00%    MPKI:0.00
PC:11978     Total:1      MisBP:0   MisRate:0.00%    MPKI:0.00
PC:10f70     Total:630      MisBP:0   MisRate:0.00%    MPKI:0.00
PC:15fb2     Total:9960      MisBP:0   MisRate:0.00%    MPKI:0.00
PC:16472     Total:10004      MisBP:0   MisRate:0.00%    MPKI:0.00
PC:114f6     Total:1218022      MisBP:0   MisRate:0.00%    MPKI:0.00
PC:16538     Total:9970      MisBP:0   MisRate:0.00%    MPKI:0.00
PC:15e9e     Total:9951      MisBP:0   MisRate:0.00%    MPKI:0.00
PC:15eea     Total:9958      MisBP:0   MisRate:0.00%    MPKI:0.00
PC:10ea8     Total:100      MisBP:0   MisRate:0.00%    MPKI:0.00
PC:15ee6     Total:9943      MisBP:0   MisRate:0.00%    MPKI:0.00
PC:10ea4     Total:100      MisBP:0   MisRate:0.00%    MPKI:0.00
PC:14136     Total:100      MisBP:0   MisRate:0.00%    MPKI:0.00
PC:19178     Total:3      MisBP:0   MisRate:0.00%    MPKI:0.00
PC:11544     Total:1149524      MisBP:0   MisRate:0.00%    MPKI:0.00
PC:151e2     Total:1278      MisBP:0   MisRate:0.00%    MPKI:0.00
PC:101a0     Total:10      MisBP:0   MisRate:0.00%    MPKI:0.00
PC:164b8     Total:9987      MisBP:0   MisRate:0.00%    MPKI:0.00
PC:11476     Total:219      MisBP:0   MisRate:0.00%    MPKI:0.00
PC:1dbf2     Total:484      MisBP:0   MisRate:0.00%    MPKI:0.00
PC:18bb0     Total:6180      MisBP:0   MisRate:0.00%    MPKI:0.00
PC:1153c     Total:1196010      MisBP:0   MisRate:0.00%    MPKI:0.00
PC:15ee4     Total:9943      MisBP:0   MisRate:0.00%    MPKI:0.00
PC:10ea2     Total:100      MisBP:0   MisRate:0.00%    MPKI:0.00
PC:1524e     Total:1      MisBP:0   MisRate:0.00%    MPKI:0.00
PC:1020c     Total:1      MisBP:0   MisRate:0.00%    MPKI:0.00
PC:15ea6     Total:9960      MisBP:0   MisRate:0.00%    MPKI:0.00
PC:11518     Total:1224753      MisBP:0   MisRate:0.00%    MPKI:0.00
PC:1655a     Total:1      MisBP:0   MisRate:0.00%    MPKI:0.00
PC:15ec0     Total:9957      MisBP:0   MisRate:0.00%    MPKI:0.00
PC:15ef4     Total:9970      MisBP:0   MisRate:0.00%    MPKI:0.00
PC:10eb2     Total:100      MisBP:0   MisRate:0.00%    MPKI:0.00
PC:1334e     Total:16      MisBP:0   MisRate:0.00%    MPKI:0.00
PC:15b0c     Total:9976      MisBP:0   MisRate:0.00%    MPKI:0.00
PC:18c38     Total:4796      MisBP:0   MisRate:0.00%    MPKI:0.00
PC:1647a     Total:10016      MisBP:0   MisRate:0.00%    MPKI:0.00
PC:114fe     Total:1216469      MisBP:0   MisRate:0.00%    MPKI:0.00
PC:16540     Total:9946      MisBP:0   MisRate:0.00%    MPKI:0.00
PC:10f84     Total:118      MisBP:0   MisRate:0.00%    MPKI:0.00
PC:10f76     Total:126      MisBP:0   MisRate:0.00%    MPKI:0.00
PC:15fb8     Total:9978      MisBP:0   MisRate:0.00%    MPKI:0.00
PC:15ef2     Total:9970      MisBP:0   MisRate:0.00%    MPKI:0.00
PC:14142     Total:100      MisBP:0   MisRate:0.00%    MPKI:0.00
PC:19184     Total:3      MisBP:0   MisRate:0.00%    MPKI:0.00
PC:11984     Total:1      MisBP:0   MisRate:0.00%    MPKI:0.00
PC:16476     Total:10025      MisBP:0   MisRate:0.00%    MPKI:0.00
PC:15ea2     Total:9968      MisBP:0   MisRate:0.00%    MPKI:0.00
PC:18c7e     Total:16692      MisBP:0   MisRate:0.00%    MPKI:0.00
PC:1dbfa     Total:460      MisBP:0   MisRate:0.00%    MPKI:0.00
PC:18bb8     Total:6161      MisBP:0   MisRate:0.00%    MPKI:0.00
PC:16482     Total:9978      MisBP:0   MisRate:0.00%    MPKI:0.00
PC:292d0     Total:1      MisBP:0   MisRate:0.00%    MPKI:0.00
PC:18c5c     Total:17724      MisBP:0   MisRate:0.00%    MPKI:0.00
PC:1649e     Total:10008      MisBP:0   MisRate:0.00%    MPKI:0.00
PC:1145c     Total:2      MisBP:0   MisRate:0.00%    MPKI:0.00
PC:11522     Total:1207682      MisBP:0   MisRate:0.00%    MPKI:0.00
PC:16564     Total:1      MisBP:0   MisRate:0.00%    MPKI:0.00
PC:15eca     Total:9972      MisBP:0   MisRate:0.00%    MPKI:0.00
PC:1195c     Total:7      MisBP:0   MisRate:0.00%    MPKI:0.00
PC:151c4     Total:1      MisBP:0   MisRate:0.00%    MPKI:0.00
PC:292cc     Total:1      MisBP:0   MisRate:0.00%    MPKI:0.00
PC:15da0     Total:9952      MisBP:0   MisRate:0.00%    MPKI:0.00
PC:18c40     Total:403      MisBP:0   MisRate:0.00%    MPKI:0.00
PC:151c8     Total:1      MisBP:0   MisRate:0.00%    MPKI:0.00
PC:11506     Total:1194672      MisBP:0   MisRate:0.00%    MPKI:0.00
PC:16548     Total:9946      MisBP:0   MisRate:0.00%    MPKI:0.00
PC:18c58     Total:14800      MisBP:0   MisRate:0.00%    MPKI:0.00
PC:1649a     Total:9982      MisBP:0   MisRate:0.00%    MPKI:0.00
PC:1151e     Total:1207748      MisBP:0   MisRate:0.00%    MPKI:0.00
PC:15ec6     Total:9973      MisBP:0   MisRate:0.00%    MPKI:0.00
PC:18c36     Total:4798      MisBP:0   MisRate:0.00%    MPKI:0.00
PC:16478     Total:10017      MisBP:0   MisRate:0.00%    MPKI:0.00
PC:114fc     Total:1217865      MisBP:0   MisRate:0.00%    MPKI:0.00
PC:16490     Total:10018      MisBP:0   MisRate:0.00%    MPKI:0.00
PC:11514     Total:1224788      MisBP:0   MisRate:0.00%    MPKI:0.00
PC:10190     Total:13      MisBP:0   MisRate:0.00%    MPKI:0.00
PC:164bc     Total:9987      MisBP:0   MisRate:0.00%    MPKI:0.00
PC:1147a     Total:219      MisBP:0   MisRate:0.00%    MPKI:0.00
PC:11540     Total:1149872      MisBP:0   MisRate:0.00%    MPKI:0.00
PC:151dc     Total:16      MisBP:0   MisRate:0.00%    MPKI:0.00
PC:292e4     Total:10      MisBP:0   MisRate:0.00%    MPKI:0.00
PC:151d8     Total:1      MisBP:0   MisRate:0.00%    MPKI:0.00
PC:18c6c     Total:17178      MisBP:0   MisRate:0.00%    MPKI:0.00
PC:164ae     Total:9987      MisBP:0   MisRate:0.00%    MPKI:0.00
PC:1146c     Total:219      MisBP:0   MisRate:0.00%    MPKI:0.00
PC:11532     Total:1196541      MisBP:0   MisRate:0.00%    MPKI:0.00
PC:151d2     Total:1      MisBP:0   MisRate:0.00%    MPKI:0.00
PC:16556     Total:1      MisBP:0   MisRate:0.00%    MPKI:0.00
PC:18c66     Total:17187      MisBP:0   MisRate:0.00%    MPKI:0.00
PC:164a8     Total:9988      MisBP:0   MisRate:0.00%    MPKI:0.00
PC:11466     Total:2      MisBP:0   MisRate:0.00%    MPKI:0.00
PC:1152c     Total:1207215      MisBP:0   MisRate:0.00%    MPKI:0.00
PC:15ed4     Total:9942      MisBP:0   MisRate:0.00%    MPKI:0.00
PC:15daa     Total:9998      MisBP:0   MisRate:0.00%    MPKI:0.00
PC:1648c     Total:9993      MisBP:0   MisRate:0.00%    MPKI:0.00
PC:15eb8     Total:9986      MisBP:0   MisRate:0.00%    MPKI:0.00
PC:11528     Total:1207216      MisBP:0   MisRate:0.00%    MPKI:0.00
PC:1656a     Total:1      MisBP:0   MisRate:0.00%    MPKI:0.00
PC:15ed0     Total:9942      MisBP:0   MisRate:0.00%    MPKI:0.00
PC:164a2     Total:10010      MisBP:0   MisRate:0.00%    MPKI:0.00
PC:1dc12     Total:24      MisBP:0   MisRate:0.00%    MPKI:0.00
PC:18c96     Total:3899      MisBP:0   MisRate:0.00%    MPKI:0.00
PC:164d8     Total:9979      MisBP:0   MisRate:0.00%    MPKI:0.00
PC:1155c     Total:68      MisBP:0   MisRate:0.00%    MPKI:0.00
PC:1659e     Total:1      MisBP:0   MisRate:0.00%    MPKI:0.00
PC:151cc     Total:1      MisBP:0   MisRate:0.00%    MPKI:0.00
PC:292d4     Total:1      MisBP:0   MisRate:0.00%    MPKI:0.00
PC:18c48     Total:403      MisBP:0   MisRate:0.00%    MPKI:0.00
PC:1648a     Total:9978      MisBP:0   MisRate:0.00%    MPKI:0.00
PC:1150e     Total:1194218      MisBP:0   MisRate:0.00%    MPKI:0.00
PC:16550     Total:9946      MisBP:0   MisRate:0.00%    MPKI:0.00
PC:15eb6     Total:9991      MisBP:0   MisRate:0.00%    MPKI:0.00
PC:11964     Total:7      MisBP:0   MisRate:0.00%    MPKI:0.00
PC:11460     Total:2      MisBP:0   MisRate:0.00%    MPKI:0.00
PC:15ece     Total:9987      MisBP:0   MisRate:0.00%    MPKI:0.00
PC:10e8c     Total:1000      MisBP:0   MisRate:0.00%    MPKI:0.00
PC:18c94     Total:3898      MisBP:0   MisRate:0.00%    MPKI:0.00
PC:164d6     Total:9979      MisBP:0   MisRate:0.00%    MPKI:0.00
PC:11494     Total:3000224      MisBP:0   MisRate:0.00%    MPKI:0.00
PC:1155a     Total:68      MisBP:0   MisRate:0.00%    MPKI:0.00
PC:14152     Total:116      MisBP:0   MisRate:0.00%    MPKI:0.00
PC:19194     Total:3      MisBP:0   MisRate:0.00%    MPKI:0.00
PC:11994     Total:923416      MisBP:0   MisRate:0.00%    MPKI:0.00
PC:164d4     Total:9981      MisBP:0   MisRate:0.00%    MPKI:0.00
PC:11564     Total:68      MisBP:0   MisRate:0.00%    MPKI:0.00
PC:15ebc     Total:9969      MisBP:0   MisRate:0.00%    MPKI:0.00
PC:16470     Total:10011      MisBP:0   MisRate:0.00%    MPKI:0.00
PC:16536     Total:10004      MisBP:0   MisRate:0.00%    MPKI:0.00
PC:15e9c     Total:9950      MisBP:0   MisRate:0.00%    MPKI:0.00
PC:11946     Total:2145512      MisBP:0   MisRate:0.00%    MPKI:0.00
PC:16988     Total:1      MisBP:0   MisRate:0.00%    MPKI:0.00
PC:3622e     Total:27      MisBP:0   MisRate:0.00%    MPKI:0.00
PC:18c28     Total:4910      MisBP:0   MisRate:0.00%    MPKI:0.00
PC:1646a     Total:10015      MisBP:0   MisRate:0.00%    MPKI:0.00
PC:15e96     Total:9950      MisBP:0   MisRate:0.00%    MPKI:0.00
PC:18c9e     Total:3853      MisBP:0   MisRate:0.00%    MPKI:0.00
PC:18ce2     Total:16104      MisBP:0   MisRate:0.00%    MPKI:0.00
PC:165a6     Total:1      MisBP:0   MisRate:0.00%    MPKI:0.00
PC:11968     Total:6      MisBP:0   MisRate:0.00%    MPKI:0.00
PC:151d4     Total:1      MisBP:0   MisRate:0.00%    MPKI:0.00
PC:18c50     Total:14806      MisBP:0   MisRate:0.00%    MPKI:0.00
PC:16492     Total:10018      MisBP:0   MisRate:0.00%    MPKI:0.00
PC:11516     Total:1224780      MisBP:0   MisRate:0.00%    MPKI:0.00
PC:15ebe     Total:9998      MisBP:0   MisRate:0.00%    MPKI:0.00
PC:18c68     Total:17175      MisBP:0   MisRate:0.00%    MPKI:0.00
PC:16570     Total:1      MisBP:0   MisRate:0.00%    MPKI:0.00
PC:15ed6     Total:9942      MisBP:0   MisRate:0.00%    MPKI:0.00
PC:10e94     Total:100      MisBP:0   MisRate:0.00%    MPKI:0.00
PC:160a6     Total:9925      MisBP:0   MisRate:0.00%    MPKI:0.00
PC:1645e     Total:10035      MisBP:0   MisRate:0.00%    MPKI:0.00
PC:10ef6     Total:110      MisBP:0   MisRate:0.00%    MPKI:0.00
PC:15f38     Total:9974      MisBP:0   MisRate:0.00%    MPKI:0.00
PC:15e72     Total:10050      MisBP:0   MisRate:0.00%    MPKI:0.00
PC:14a86     Total:2      MisBP:0   MisRate:0.00%    MPKI:0.00
PC:15cf0     Total:9941      MisBP:0   MisRate:0.00%    MPKI:0.00
PC:292c4     Total:1      MisBP:0   MisRate:0.00%    MPKI:0.00
PC:18dc4     Total:79502      MisBP:0   MisRate:0.00%    MPKI:0.00
PC:1168a     Total:1102856      MisBP:0   MisRate:0.00%    MPKI:0.00
PC:16032     Total:10060      MisBP:0   MisRate:0.00%    MPKI:0.00
PC:1667a     Total:7      MisBP:0   MisRate:0.00%    MPKI:0.00
PC:11638     Total:35      MisBP:0   MisRate:0.00%    MPKI:0.00
PC:18c1c     Total:4914      MisBP:0   MisRate:0.00%    MPKI:0.00
PC:18fd4     Total:6      MisBP:0   MisRate:0.00%    MPKI:0.00
PC:18dc2     Total:4138      MisBP:0   MisRate:0.00%    MPKI:0.00
PC:11688     Total:1102857      MisBP:0   MisRate:0.00%    MPKI:0.00
PC:166ca     Total:654      MisBP:0   MisRate:0.00%    MPKI:0.00
PC:16030     Total:10060      MisBP:0   MisRate:0.00%    MPKI:0.00
PC:14a82     Total:2      MisBP:0   MisRate:0.00%    MPKI:0.00
PC:15cec     Total:9952      MisBP:0   MisRate:0.00%    MPKI:0.00
PC:16602     Total:10436      MisBP:0   MisRate:0.00%    MPKI:0.00
PC:18dc0     Total:4138      MisBP:0   MisRate:0.00%    MPKI:0.00
PC:11686     Total:1102870      MisBP:0   MisRate:0.00%    MPKI:0.00
PC:1602e     Total:10061      MisBP:0   MisRate:0.00%    MPKI:0.00
PC:115c8     Total:346141      MisBP:0   MisRate:0.00%    MPKI:0.00
PC:16702     Total:4      MisBP:0   MisRate:0.00%    MPKI:0.00
PC:16068     Total:9987      MisBP:0   MisRate:0.00%    MPKI:0.00
PC:11026     Total:100      MisBP:0   MisRate:0.00%    MPKI:0.00
PC:1663a     Total:526      MisBP:0   MisRate:0.00%    MPKI:0.00
PC:115f8     Total:1525      MisBP:0   MisRate:0.00%    MPKI:0.00
PC:116be     Total:94      MisBP:0   MisRate:0.00%    MPKI:0.00
PC:16066     Total:9987      MisBP:0   MisRate:0.00%    MPKI:0.00
PC:11024     Total:100      MisBP:0   MisRate:0.00%    MPKI:0.00
PC:16262     Total:9954      MisBP:0   MisRate:0.00%    MPKI:0.00
PC:14a8a     Total:2      MisBP:0   MisRate:0.00%    MPKI:0.00
PC:15cf4     Total:9939      MisBP:0   MisRate:0.00%    MPKI:0.00
PC:1660a     Total:3      MisBP:0   MisRate:0.00%    MPKI:0.00
PC:15182     Total:24      MisBP:0   MisRate:0.00%    MPKI:0.00
PC:18dc8     Total:79262      MisBP:0   MisRate:0.00%    MPKI:0.00
PC:16036     Total:10060      MisBP:0   MisRate:0.00%    MPKI:0.00
PC:14a88     Total:2      MisBP:0   MisRate:0.00%    MPKI:0.00
PC:15cf2     Total:9939      MisBP:0   MisRate:0.00%    MPKI:0.00
PC:16608     Total:3      MisBP:0   MisRate:0.00%    MPKI:0.00
PC:1168c     Total:1102856      MisBP:0   MisRate:0.00%    MPKI:0.00
PC:166ce     Total:327      MisBP:0   MisRate:0.00%    MPKI:0.00
PC:15188     Total:24      MisBP:0   MisRate:0.00%    MPKI:0.00
PC:29290     Total:2      MisBP:0   MisRate:0.00%    MPKI:0.00
PC:14df4     Total:5288      MisBP:0   MisRate:0.00%    MPKI:0.00
PC:12636     Total:1      MisBP:0   MisRate:0.00%    MPKI:0.00
PC:18e2e     Total:80      MisBP:0   MisRate:0.00%    MPKI:0.00
PC:165fc     Total:5564      MisBP:0   MisRate:0.00%    MPKI:0.00
PC:115ba     Total:369830      MisBP:0   MisRate:0.00%    MPKI:0.00
PC:18dba     Total:4329      MisBP:0   MisRate:0.00%    MPKI:0.00
PC:11680     Total:1103097      MisBP:0   MisRate:0.00%    MPKI:0.00
PC:16028     Total:10050      MisBP:0   MisRate:0.00%    MPKI:0.00
PC:16636     Total:526      MisBP:0   MisRate:0.00%    MPKI:0.00
PC:115f4     Total:1525      MisBP:0   MisRate:0.00%    MPKI:0.00
PC:116ba     Total:94      MisBP:0   MisRate:0.00%    MPKI:0.00
PC:16062     Total:9987      MisBP:0   MisRate:0.00%    MPKI:0.00
PC:11020     Total:100      MisBP:0   MisRate:0.00%    MPKI:0.00
PC:16670     Total:7      MisBP:0   MisRate:0.00%    MPKI:0.00
PC:1162e     Total:1063      MisBP:0   MisRate:0.00%    MPKI:0.00
PC:15ce6     Total:9926      MisBP:0   MisRate:0.00%    MPKI:0.00
PC:116f4     Total:100      MisBP:0   MisRate:0.00%    MPKI:0.00
PC:16736     Total:3      MisBP:0   MisRate:0.00%    MPKI:0.00
PC:1609c     Total:9926      MisBP:0   MisRate:0.00%    MPKI:0.00
PC:1105a     Total:3      MisBP:0   MisRate:0.00%    MPKI:0.00
PC:14a7a     Total:2      MisBP:0   MisRate:0.00%    MPKI:0.00
PC:15ce4     Total:9925      MisBP:0   MisRate:0.00%    MPKI:0.00
PC:18db8     Total:4329      MisBP:0   MisRate:0.00%    MPKI:0.00
PC:16026     Total:10050      MisBP:0   MisRate:0.00%    MPKI:0.00
PC:1517a     Total:27      MisBP:0   MisRate:0.00%    MPKI:0.00
PC:18c0e     Total:52      MisBP:0   MisRate:0.00%    MPKI:0.00
PC:114d4     Total:1108654      MisBP:0   MisRate:0.00%    MPKI:0.00
PC:14a7e     Total:1      MisBP:0   MisRate:0.00%    MPKI:0.00
PC:18c16     Total:49      MisBP:0   MisRate:0.00%    MPKI:0.00
PC:16676     Total:7      MisBP:0   MisRate:0.00%    MPKI:0.00
PC:11634     Total:35      MisBP:0   MisRate:0.00%    MPKI:0.00
PC:18e34     Total:50      MisBP:0   MisRate:0.00%    MPKI:0.00
PC:116fa     Total:15      MisBP:0   MisRate:0.00%    MPKI:0.00
PC:160a2     Total:9946      MisBP:0   MisRate:0.00%    MPKI:0.00
PC:11060     Total:404      MisBP:0   MisRate:0.00%    MPKI:0.00
PC:18dbe     Total:4315      MisBP:0   MisRate:0.00%    MPKI:0.00
PC:11684     Total:1103070      MisBP:0   MisRate:0.00%    MPKI:0.00
PC:166c6     Total:30      MisBP:0   MisRate:0.00%    MPKI:0.00
PC:1602c     Total:10061      MisBP:0   MisRate:0.00%    MPKI:0.00
PC:116c0     Total:92      MisBP:0   MisRate:0.00%    MPKI:0.00
PC:15ce8     Total:9926      MisBP:0   MisRate:0.00%    MPKI:0.00
PC:165fe     Total:5218      MisBP:0   MisRate:0.00%    MPKI:0.00
PC:115bc     Total:367828      MisBP:0   MisRate:0.00%    MPKI:0.00
PC:18dbc     Total:4327      MisBP:0   MisRate:0.00%    MPKI:0.00
PC:1602a     Total:10080      MisBP:0   MisRate:0.00%    MPKI:0.00
PC:18c12     Total:49      MisBP:0   MisRate:0.00%    MPKI:0.00
PC:16454     Total:10042      MisBP:0   MisRate:0.00%    MPKI:0.00
PC:15e80     Total:9963      MisBP:0   MisRate:0.00%    MPKI:0.00
PC:18bfa     Total:62      MisBP:0   MisRate:0.00%    MPKI:0.00
PC:15e68     Total:10056      MisBP:0   MisRate:0.00%    MPKI:0.00
PC:14a7c     Total:2      MisBP:0   MisRate:0.00%    MPKI:0.00
PC:1665a     Total:10      MisBP:0   MisRate:0.00%    MPKI:0.00
PC:118e6     Total:102851      MisBP:0   MisRate:0.00%    MPKI:0.00
PC:16928     Total:4      MisBP:0   MisRate:0.00%    MPKI:0.00
PC:16660     Total:10      MisBP:0   MisRate:0.00%    MPKI:0.00
PC:1161e     Total:1132      MisBP:0   MisRate:0.00%    MPKI:0.00
PC:18e1e     Total:1266      MisBP:0   MisRate:0.00%    MPKI:0.00
PC:116e4     Total:101      MisBP:0   MisRate:0.00%    MPKI:0.00
PC:16726     Total:3      MisBP:0   MisRate:0.00%    MPKI:0.00
PC:1608c     Total:9909      MisBP:0   MisRate:0.00%    MPKI:0.00
PC:1104a     Total:100      MisBP:0   MisRate:0.00%    MPKI:0.00
PC:1409a     Total:100      MisBP:0   MisRate:0.00%    MPKI:0.00
PC:16858     Total:5      MisBP:0   MisRate:0.00%    MPKI:0.00
PC:118dc     Total:1      MisBP:0   MisRate:0.00%    MPKI:0.00
PC:15e88     Total:9962      MisBP:0   MisRate:0.00%    MPKI:0.00
PC:116de     Total:101      MisBP:0   MisRate:0.00%    MPKI:0.00
PC:16720     Total:3      MisBP:0   MisRate:0.00%    MPKI:0.00
PC:1517c     Total:27      MisBP:0   MisRate:0.00%    MPKI:0.00
PC:29284     Total:2      MisBP:0   MisRate:0.00%    MPKI:0.00
PC:18c10     Total:49      MisBP:0   MisRate:0.00%    MPKI:0.00
PC:16452     Total:10077      MisBP:0   MisRate:0.00%    MPKI:0.00
PC:36216     Total:42      MisBP:0   MisRate:0.00%    MPKI:0.00
PC:15e7e     Total:10017      MisBP:0   MisRate:0.00%    MPKI:0.00
PC:16654     Total:10      MisBP:0   MisRate:0.00%    MPKI:0.00
PC:18e12     Total:3733      MisBP:0   MisRate:0.00%    MPKI:0.00
PC:116d8     Total:92      MisBP:0   MisRate:0.00%    MPKI:0.00
PC:114d8     Total:1103661      MisBP:0   MisRate:0.00%    MPKI:0.00
PC:16524     Total:10005      MisBP:0   MisRate:0.00%    MPKI:0.00
PC:114e2     Total:4335956      MisBP:0   MisRate:0.00%    MPKI:0.00
PC:15f50     Total:9969      MisBP:0   MisRate:0.00%    MPKI:0.00
PC:16522     Total:10005      MisBP:0   MisRate:0.00%    MPKI:0.00
PC:114e0     Total:4336014      MisBP:0   MisRate:0.00%    MPKI:0.00
PC:15f4e     Total:9969      MisBP:0   MisRate:0.00%    MPKI:0.00
PC:18cdc     Total:16104      MisBP:0   MisRate:0.00%    MPKI:0.00
PC:1651e     Total:10018      MisBP:0   MisRate:0.00%    MPKI:0.00
PC:114dc     Total:3304943      MisBP:0   MisRate:0.00%    MPKI:0.00
PC:15f4a     Total:9953      MisBP:0   MisRate:0.00%    MPKI:0.00
PC:1651a     Total:9987      MisBP:0   MisRate:0.00%    MPKI:0.00
PC:1671a     Total:3      MisBP:0   MisRate:0.00%    MPKI:0.00
PC:1917e     Total:3      MisBP:0   MisRate:0.00%    MPKI:0.00
PC:15a40     Total:9919      MisBP:0   MisRate:0.00%    MPKI:0.00
PC:15a3a     Total:9921      MisBP:0   MisRate:0.00%    MPKI:0.00
PC:16664     Total:10      MisBP:0   MisRate:0.00%    MPKI:0.00
PC:11622     Total:1132      MisBP:0   MisRate:0.00%    MPKI:0.00
PC:116e8     Total:101      MisBP:0   MisRate:0.00%    MPKI:0.00
PC:1672a     Total:4      MisBP:0   MisRate:0.00%    MPKI:0.00
PC:16090     Total:9928      MisBP:0   MisRate:0.00%    MPKI:0.00
PC:15186     Total:24      MisBP:0   MisRate:0.00%    MPKI:0.00
PC:18c1a     Total:4915      MisBP:0   MisRate:0.00%    MPKI:0.00
PC:1645c     Total:10036      MisBP:0   MisRate:0.00%    MPKI:0.00
PC:29272     Total:4      MisBP:0   MisRate:0.00%    MPKI:0.00
PC:15e3c     Total:10116      MisBP:0   MisRate:0.00%    MPKI:0.00
PC:16648     Total:10      MisBP:0   MisRate:0.00%    MPKI:0.00
PC:11606     Total:1510      MisBP:0   MisRate:0.00%    MPKI:0.00
PC:18e06     Total:9      MisBP:0   MisRate:0.00%    MPKI:0.00
PC:116cc     Total:92      MisBP:0   MisRate:0.00%    MPKI:0.00
PC:15136     Total:14      MisBP:0   MisRate:0.00%    MPKI:0.00
PC:125e4     Total:2      MisBP:0   MisRate:0.00%    MPKI:0.00
PC:15e38     Total:10092      MisBP:0   MisRate:0.00%    MPKI:0.00
PC:11602     Total:1510      MisBP:0   MisRate:0.00%    MPKI:0.00
PC:18e02     Total:9      MisBP:0   MisRate:0.00%    MPKI:0.00
PC:116c8     Total:92      MisBP:0   MisRate:0.00%    MPKI:0.00
PC:16070     Total:9976      MisBP:0   MisRate:0.00%    MPKI:0.00
PC:10ec0     Total:112      MisBP:0   MisRate:0.00%    MPKI:0.00
PC:18bfe     Total:52      MisBP:0   MisRate:0.00%    MPKI:0.00
PC:16440     Total:10088      MisBP:0   MisRate:0.00%    MPKI:0.00
PC:114c4     Total:1055527      MisBP:0   MisRate:0.00%    MPKI:0.00
PC:15e6c     Total:10052      MisBP:0   MisRate:0.00%    MPKI:0.00
PC:16642     Total:517      MisBP:0   MisRate:0.00%    MPKI:0.00
PC:11600     Total:1510      MisBP:0   MisRate:0.00%    MPKI:0.00
PC:116c6     Total:92      MisBP:0   MisRate:0.00%    MPKI:0.00
PC:16708     Total:4      MisBP:0   MisRate:0.00%    MPKI:0.00
PC:1663c     Total:526      MisBP:0   MisRate:0.00%    MPKI:0.00
PC:115fa     Total:1525      MisBP:0   MisRate:0.00%    MPKI:0.00
PC:18dfa     Total:10      MisBP:0   MisRate:0.00%    MPKI:0.00
PC:140c4     Total:118      MisBP:0   MisRate:0.00%    MPKI:0.00
PC:16080     Total:9910      MisBP:0   MisRate:0.00%    MPKI:0.00
PC:1103e     Total:100      MisBP:0   MisRate:0.00%    MPKI:0.00
PC:167b0     Total:12      MisBP:0   MisRate:0.00%    MPKI:0.00
PC:1176e     Total:64      MisBP:0   MisRate:0.00%    MPKI:0.00
PC:11834     Total:1034916      MisBP:0   MisRate:0.00%    MPKI:0.00
PC:16876     Total:44      MisBP:0   MisRate:0.00%    MPKI:0.00
PC:161dc     Total:9906      MisBP:0   MisRate:0.00%    MPKI:0.00
PC:18e0c     Total:3746      MisBP:0   MisRate:0.00%    MPKI:0.00
PC:15a3e     Total:9921      MisBP:0   MisRate:0.00%    MPKI:0.00
PC:167ac     Total:12      MisBP:0   MisRate:0.00%    MPKI:0.00
PC:161d8     Total:9903      MisBP:0   MisRate:0.00%    MPKI:0.00
PC:18c7a     Total:17080      MisBP:0   MisRate:0.00%    MPKI:0.00
PC:11906     Total:1013565      MisBP:0   MisRate:0.00%    MPKI:0.00
PC:16948     Total:348      MisBP:0   MisRate:0.00%    MPKI:0.00
PC:18e08     Total:3752      MisBP:0   MisRate:0.00%    MPKI:0.00
PC:16710     Total:3      MisBP:0   MisRate:0.00%    MPKI:0.00
PC:16076     Total:9951      MisBP:0   MisRate:0.00%    MPKI:0.00
PC:11034     Total:100      MisBP:0   MisRate:0.00%    MPKI:0.00
PC:1513a     Total:14      MisBP:0   MisRate:0.00%    MPKI:0.00
PC:29242     Total:18      MisBP:0   MisRate:0.00%    MPKI:0.00
PC:14da6     Total:5277      MisBP:0   MisRate:0.00%    MPKI:0.00
PC:125e8     Total:1      MisBP:0   MisRate:0.00%    MPKI:0.00
PC:16410     Total:10105      MisBP:0   MisRate:0.00%    MPKI:0.00
PC:16208     Total:9913      MisBP:0   MisRate:0.00%    MPKI:0.00
PC:117a2     Total:32      MisBP:0   MisRate:0.00%    MPKI:0.00
PC:11868     Total:26      MisBP:0   MisRate:0.00%    MPKI:0.00
PC:168aa     Total:2      MisBP:0   MisRate:0.00%    MPKI:0.00
PC:1e2f4     Total:120      MisBP:0   MisRate:0.00%    MPKI:0.00
PC:1620e     Total:9908      MisBP:0   MisRate:0.00%    MPKI:0.00
PC:1e2f0     Total:120      MisBP:0   MisRate:0.00%    MPKI:0.00
PC:1620a     Total:9913      MisBP:0   MisRate:0.00%    MPKI:0.00
PC:111c8     Total:23      MisBP:0   MisRate:0.00%    MPKI:0.00
PC:1e2ee     Total:120      MisBP:0   MisRate:0.00%    MPKI:0.00
PC:167dc     Total:187      MisBP:0   MisRate:0.00%    MPKI:0.00
PC:1179a     Total:37      MisBP:0   MisRate:0.00%    MPKI:0.00
PC:18f9a     Total:10      MisBP:0   MisRate:0.00%    MPKI:0.00
PC:1e2f6     Total:120      MisBP:0   MisRate:0.00%    MPKI:0.00
PC:111c6     Total:23      MisBP:0   MisRate:0.00%    MPKI:0.00
PC:1e2ec     Total:120      MisBP:0   MisRate:0.00%    MPKI:0.00
[...]
PC:15fb6     Total:9978      MisBP:0   MisRate:0.00%    MPKI:0.00
PC:18d4a     Total:4531      MisBP:0   MisRate:0.00%    MPKI:0.00
PC:1910e     Total:3      MisBP:0   MisRate:0.00%    MPKI:0.00
PC:191d4     Total:3      MisBP:0   MisRate:0.00%    MPKI:0.00
PC:15408     Total:9794      MisBP:1   MisRate:0.01%    MPKI:0.00
PC:12fde     Total:1      MisBP:1   MisRate:100.00%    MPKI:0.00
PC:13000     Total:3      MisBP:1   MisRate:33.33%    MPKI:0.00
PC:12fd8     Total:1      MisBP:1   MisRate:100.00%    MPKI:0.00
PC:151f8     Total:3      MisBP:1   MisRate:33.33%    MPKI:0.00
PC:15196     Total:24      MisBP:1   MisRate:4.17%    MPKI:0.00
PC:130ae     Total:508903      MisBP:1   MisRate:0.00%    MPKI:0.00
PC:167d0     Total:213      MisBP:1   MisRate:0.47%    MPKI:0.00
PC:165a8     Total:1      MisBP:1   MisRate:100.00%    MPKI:0.00
PC:12182     Total:6      MisBP:1   MisRate:16.67%    MPKI:0.00
PC:15504     Total:6      MisBP:1   MisRate:16.67%    MPKI:0.00
PC:11458     Total:236      MisBP:1   MisRate:0.42%    MPKI:0.00
PC:15934     Total:9968      MisBP:1   MisRate:0.01%    MPKI:0.00
PC:11d68     Total:5      MisBP:1   MisRate:20.00%    MPKI:0.00
PC:11b88     Total:1      MisBP:1   MisRate:100.00%    MPKI:0.00
PC:297a0     Total:26      MisBP:1   MisRate:3.85%    MPKI:0.00
PC:125f6     Total:58758      MisBP:1   MisRate:0.00%    MPKI:0.00
PC:11c66     Total:10      MisBP:1   MisRate:10.00%    MPKI:0.00
PC:14bfe     Total:4117      MisBP:1   MisRate:0.02%    MPKI:0.00
PC:1272a     Total:103      MisBP:1   MisRate:0.97%    MPKI:0.00
PC:152f0     Total:89      MisBP:1   MisRate:1.12%    MPKI:0.00
PC:14f2e     Total:3      MisBP:1   MisRate:33.33%    MPKI:0.00
PC:10ecc     Total:112      MisBP:1   MisRate:0.89%    MPKI:0.00
PC:125b2     Total:1      MisBP:1   MisRate:100.00%    MPKI:0.00
PC:125f0     Total:58758      MisBP:1   MisRate:0.00%    MPKI:0.00
PC:29404     Total:113      MisBP:1   MisRate:0.88%    MPKI:0.00
PC:1338e     Total:7      MisBP:1   MisRate:14.29%    MPKI:0.00
PC:12e6c     Total:49450      MisBP:1   MisRate:0.00%    MPKI:0.00
PC:14af2     Total:1      MisBP:1   MisRate:100.00%    MPKI:0.00
PC:3624e     Total:19      MisBP:1   MisRate:5.26%    MPKI:0.00
PC:18fa0     Total:10      MisBP:1   MisRate:10.00%    MPKI:0.00
PC:10f9c     Total:103      MisBP:1   MisRate:0.97%    MPKI:0.00
PC:11c96     Total:12      MisBP:1   MisRate:8.33%    MPKI:0.00
PC:1417e     Total:13      MisBP:2   MisRate:15.38%    MPKI:0.00
PC:14bc4     Total:382      MisBP:2   MisRate:0.52%    MPKI:0.00
PC:165be     Total:15      MisBP:2   MisRate:13.33%    MPKI:0.00
PC:12eae     Total:12      MisBP:2   MisRate:16.67%    MPKI:0.00
PC:15286     Total:139      MisBP:2   MisRate:1.44%    MPKI:0.00
PC:12e5c     Total:121      MisBP:2   MisRate:1.65%    MPKI:0.00
PC:118a8     Total:25      MisBP:2   MisRate:8.00%    MPKI:0.00
PC:293d0     Total:113      MisBP:2   MisRate:1.77%    MPKI:0.00
PC:12640     Total:18      MisBP:2   MisRate:11.11%    MPKI:0.00
PC:12902     Total:100      MisBP:2   MisRate:2.00%    MPKI:0.00
PC:1516a     Total:12      MisBP:2   MisRate:16.67%    MPKI:0.00
PC:140d2     Total:899      MisBP:2   MisRate:0.22%    MPKI:0.00
PC:13354     Total:616      MisBP:2   MisRate:0.32%    MPKI:0.00
PC:13074     Total:977      MisBP:2   MisRate:0.20%    MPKI:0.00
PC:12f14     Total:7      MisBP:2   MisRate:28.57%    MPKI:0.00
PC:11b12     Total:30519      MisBP:2   MisRate:0.01%    MPKI:0.00
PC:14f58     Total:32      MisBP:2   MisRate:6.25%    MPKI:0.00
PC:140be     Total:100      MisBP:2   MisRate:2.00%    MPKI:0.00
PC:1151a     Total:36      MisBP:2   MisRate:5.56%    MPKI:0.00
PC:14f16     Total:5076      MisBP:2   MisRate:0.04%    MPKI:0.00
PC:16896     Total:42      MisBP:2   MisRate:4.76%    MPKI:0.00
PC:14f1e     Total:6      MisBP:2   MisRate:33.33%    MPKI:0.00
PC:16696     Total:37      MisBP:2   MisRate:5.41%    MPKI:0.00
PC:18fb2     Total:9      MisBP:3   MisRate:33.33%    MPKI:0.00
PC:11d8a     Total:261      MisBP:3   MisRate:1.15%    MPKI:0.00
PC:166b6     Total:35      MisBP:3   MisRate:8.57%    MPKI:0.00
PC:1532a     Total:12      MisBP:3   MisRate:25.00%    MPKI:0.00
PC:1104e     Total:100      MisBP:3   MisRate:3.00%    MPKI:0.00
PC:16802     Total:3      MisBP:3   MisRate:100.00%    MPKI:0.00
PC:16854     Total:4638      MisBP:3   MisRate:0.06%    MPKI:0.00
PC:16606     Total:5218      MisBP:3   MisRate:0.06%    MPKI:0.00
PC:12e56     Total:109      MisBP:3   MisRate:2.75%    MPKI:0.00
PC:11cc6     Total:65547      MisBP:3   MisRate:0.00%    MPKI:0.00
PC:151f0     Total:16      MisBP:3   MisRate:18.75%    MPKI:0.00
PC:1666e     Total:10      MisBP:3   MisRate:30.00%    MPKI:0.00
PC:15498     Total:9793      MisBP:3   MisRate:0.03%    MPKI:0.00
PC:16760     Total:4179      MisBP:3   MisRate:0.07%    MPKI:0.00
PC:1593e     Total:9784      MisBP:4   MisRate:0.04%    MPKI:0.00
PC:12180     Total:532      MisBP:4   MisRate:0.75%    MPKI:0.00
PC:14162     Total:151      MisBP:4   MisRate:2.65%    MPKI:0.00
PC:128f6     Total:135      MisBP:4   MisRate:2.96%    MPKI:0.00
PC:12eda     Total:270      MisBP:4   MisRate:1.48%    MPKI:0.00
PC:1208c     Total:294      MisBP:4   MisRate:1.36%    MPKI:0.00
PC:16768     Total:8      MisBP:4   MisRate:50.00%    MPKI:0.00
PC:13346     Total:121      MisBP:4   MisRate:3.31%    MPKI:0.00
PC:1158c     Total:32026      MisBP:4   MisRate:0.01%    MPKI:0.00
PC:167fa     Total:13      MisBP:5   MisRate:38.46%    MPKI:0.00
PC:11d9a     Total:19      MisBP:5   MisRate:26.32%    MPKI:0.00
PC:18de2     Total:56      MisBP:5   MisRate:8.93%    MPKI:0.00
PC:29348     Total:122      MisBP:5   MisRate:4.10%    MPKI:0.00
PC:166f0     Total:9      MisBP:5   MisRate:55.56%    MPKI:0.00
PC:11bb4     Total:65553      MisBP:5   MisRate:0.01%    MPKI:0.00
PC:11d58     Total:125084      MisBP:5   MisRate:0.00%    MPKI:0.00
PC:15120     Total:26      MisBP:5   MisRate:19.23%    MPKI:0.00
PC:18fd0     Total:6      MisBP:5   MisRate:83.33%    MPKI:0.00
PC:166a8     Total:37      MisBP:5   MisRate:13.51%    MPKI:0.00
PC:11c90     Total:51      MisBP:5   MisRate:9.80%    MPKI:0.00
PC:29818     Total:12      MisBP:5   MisRate:41.67%    MPKI:0.00
PC:14bde     Total:101      MisBP:5   MisRate:4.95%    MPKI:0.00
PC:10158     Total:402      MisBP:5   MisRate:1.24%    MPKI:0.00
PC:11672     Total:408      MisBP:6   MisRate:1.47%    MPKI:0.00
PC:111de     Total:17      MisBP:6   MisRate:35.29%    MPKI:0.00
PC:154cc     Total:111      MisBP:6   MisRate:5.41%    MPKI:0.00
PC:11610     Total:1508      MisBP:6   MisRate:0.40%    MPKI:0.00
PC:12efc     Total:105      MisBP:6   MisRate:5.71%    MPKI:0.00
PC:18d92     Total:1401      MisBP:6   MisRate:0.43%    MPKI:0.00
PC:121f0     Total:429      MisBP:6   MisRate:1.40%    MPKI:0.00
PC:154fa     Total:42      MisBP:6   MisRate:14.29%    MPKI:0.00
PC:152aa     Total:13      MisBP:6   MisRate:46.15%    MPKI:0.00
PC:130c8     Total:9101      MisBP:6   MisRate:0.07%    MPKI:0.00
PC:153d2     Total:8      MisBP:6   MisRate:75.00%    MPKI:0.00
PC:15576     Total:9786      MisBP:6   MisRate:0.06%    MPKI:0.00
PC:11558     Total:33646      MisBP:6   MisRate:0.02%    MPKI:0.00
PC:1697a     Total:345      MisBP:6   MisRate:1.74%    MPKI:0.00
PC:14168     Total:150      MisBP:6   MisRate:4.00%    MPKI:0.00
PC:153cc     Total:26      MisBP:7   MisRate:26.92%    MPKI:0.00
PC:167f2     Total:1006      MisBP:7   MisRate:0.70%    MPKI:0.00
PC:13382     Total:109      MisBP:7   MisRate:6.42%    MPKI:0.00
PC:14bf6     Total:100      MisBP:7   MisRate:7.00%    MPKI:0.00
PC:29354     Total:15      MisBP:8   MisRate:53.33%    MPKI:0.00
PC:18e8c     Total:93      MisBP:8   MisRate:8.60%    MPKI:0.00
PC:166e8     Total:66      MisBP:8   MisRate:12.12%    MPKI:0.00
PC:15444     Total:170      MisBP:8   MisRate:4.71%    MPKI:0.00
PC:141a8     Total:117      MisBP:8   MisRate:6.84%    MPKI:0.00
PC:153a8     Total:85      MisBP:9   MisRate:10.59%    MPKI:0.00
PC:166c4     Total:63      MisBP:9   MisRate:14.29%    MPKI:0.00
PC:1414a     Total:131      MisBP:9   MisRate:6.87%    MPKI:0.00
PC:1530e     Total:517      MisBP:9   MisRate:1.74%    MPKI:0.00
PC:16644     Total:517      MisBP:10   MisRate:1.93%    MPKI:0.00
PC:151e8     Total:639      MisBP:10   MisRate:1.56%    MPKI:0.00
PC:29470     Total:116      MisBP:10   MisRate:8.62%    MPKI:0.00
PC:11c50     Total:125093      MisBP:10   MisRate:0.01%    MPKI:0.00
PC:29654     Total:1400      MisBP:10   MisRate:0.71%    MPKI:0.00
PC:12224     Total:284      MisBP:11   MisRate:3.87%    MPKI:0.00
PC:121dc     Total:447      MisBP:11   MisRate:2.46%    MPKI:0.00
PC:18e16     Total:3729      MisBP:11   MisRate:0.29%    MPKI:0.00
PC:12ea0     Total:49451      MisBP:12   MisRate:0.02%    MPKI:0.00
PC:29804     Total:859      MisBP:12   MisRate:1.40%    MPKI:0.00
PC:1308a     Total:6738      MisBP:13   MisRate:0.19%    MPKI:0.00
PC:1171e     Total:107      MisBP:13   MisRate:12.15%    MPKI:0.00
PC:11666     Total:500738      MisBP:14   MisRate:0.00%    MPKI:0.00
PC:153c2     Total:2066      MisBP:14   MisRate:0.68%    MPKI:0.00
PC:15292     Total:146      MisBP:15   MisRate:10.27%    MPKI:0.00
PC:120e6     Total:322      MisBP:16   MisRate:4.97%    MPKI:0.00
PC:293c4     Total:122      MisBP:16   MisRate:13.11%    MPKI:0.00
PC:116ce     Total:92      MisBP:16   MisRate:17.39%    MPKI:0.00
PC:11836     Total:1034910      MisBP:17   MisRate:0.00%    MPKI:0.00
PC:11840     Total:31      MisBP:18   MisRate:58.06%    MPKI:0.00
PC:1227c     Total:39172      MisBP:21   MisRate:0.05%    MPKI:0.00
PC:18e84     Total:6660      MisBP:21   MisRate:0.32%    MPKI:0.00
PC:15302     Total:585      MisBP:21   MisRate:3.59%    MPKI:0.00
PC:114ae     Total:3000103      MisBP:22   MisRate:0.00%    MPKI:0.00
PC:166e2     Total:314      MisBP:22   MisRate:7.01%    MPKI:0.00
PC:18c2e     Total:4855      MisBP:22   MisRate:0.45%    MPKI:0.00
PC:11618     Total:1159      MisBP:23   MisRate:1.98%    MPKI:0.00
PC:1511c     Total:643284      MisBP:25   MisRate:0.00%    MPKI:0.00
PC:11832     Total:1035032      MisBP:25   MisRate:0.00%    MPKI:0.00
PC:11e2a     Total:53      MisBP:26   MisRate:49.06%    MPKI:0.00
PC:18e28     Total:1265      MisBP:28   MisRate:2.21%    MPKI:0.00
PC:12d9c     Total:6783      MisBP:30   MisRate:0.44%    MPKI:0.00
PC:18b64     Total:4587      MisBP:32   MisRate:0.70%    MPKI:0.00
PC:12140     Total:306      MisBP:32   MisRate:10.46%    MPKI:0.00
PC:12da0     Total:244      MisBP:33   MisRate:13.52%    MPKI:0.00
PC:16692     Total:819      MisBP:33   MisRate:4.03%    MPKI:0.00
PC:18bf8     Total:5214      MisBP:40   MisRate:0.77%    MPKI:0.00
PC:18ca4     Total:3831      MisBP:44   MisRate:1.15%    MPKI:0.00
PC:14bb6     Total:382      MisBP:44   MisRate:11.52%    MPKI:0.00
PC:18c4e     Total:403      MisBP:45   MisRate:11.17%    MPKI:0.00
PC:11dfc     Total:1489      MisBP:46   MisRate:3.09%    MPKI:0.00
PC:11546     Total:1149497      MisBP:47   MisRate:0.00%    MPKI:0.00
PC:11e26     Total:2445      MisBP:50   MisRate:2.04%    MPKI:0.00
PC:116a4     Total:1073602      MisBP:50   MisRate:0.00%    MPKI:0.00
PC:18de0     Total:4487      MisBP:52   MisRate:1.16%    MPKI:0.00
PC:18cc4     Total:153      MisBP:57   MisRate:37.25%    MPKI:0.00
PC:11654     Total:697      MisBP:59   MisRate:8.46%    MPKI:0.00
PC:118b0     Total:984223      MisBP:60   MisRate:0.01%    MPKI:0.00
PC:166d4     Total:327      MisBP:60   MisRate:18.35%    MPKI:0.00
PC:1668c     Total:807      MisBP:70   MisRate:8.67%    MPKI:0.00
PC:11aee     Total:31214      MisBP:76   MisRate:0.24%    MPKI:0.00
PC:1221c     Total:193629      MisBP:77   MisRate:0.04%    MPKI:0.00
PC:1211e     Total:133061      MisBP:83   MisRate:0.06%    MPKI:0.00
PC:167cc     Total:360      MisBP:84   MisRate:23.33%    MPKI:0.00
PC:11ada     Total:32983      MisBP:88   MisRate:0.27%    MPKI:0.00
PC:11646     Total:500683      MisBP:99   MisRate:0.02%    MPKI:0.00
PC:115b2     Total:103150      MisBP:102   MisRate:0.10%    MPKI:0.00
PC:29454     Total:413      MisBP:106   MisRate:25.67%    MPKI:0.00
PC:15440     Total:815      MisBP:120   MisRate:14.72%    MPKI:0.00
PC:130b6     Total:508832      MisBP:122   MisRate:0.02%    MPKI:0.00
PC:11ac4     Total:35696      MisBP:123   MisRate:0.34%    MPKI:0.00
PC:167e4     Total:995      MisBP:125   MisRate:12.56%    MPKI:0.00
PC:167b8     Total:964      MisBP:129   MisRate:13.38%    MPKI:0.00
PC:115e0     Total:1723      MisBP:149   MisRate:8.65%    MPKI:0.00
PC:18cd8     Total:16215      MisBP:159   MisRate:0.98%    MPKI:0.00
PC:11f7a     Total:33151      MisBP:169   MisRate:0.51%    MPKI:0.00
PC:12178     Total:166429      MisBP:204   MisRate:0.12%    MPKI:0.00
PC:18c62     Total:17679      MisBP:204   MisRate:1.15%    MPKI:0.00
PC:18cfe     Total:15320      MisBP:236   MisRate:1.54%    MPKI:0.00
PC:1207e     Total:82415      MisBP:259   MisRate:0.31%    MPKI:0.00
PC:18d84     Total:1909      MisBP:275   MisRate:14.41%    MPKI:0.00
PC:120ce     Total:62283      MisBP:281   MisRate:0.45%    MPKI:0.00
PC:11e60     Total:81475      MisBP:301   MisRate:0.37%    MPKI:0.00
PC:11aae     Total:39075      MisBP:303   MisRate:0.78%    MPKI:0.00
PC:121ae     Total:64923      MisBP:311   MisRate:0.48%    MPKI:0.00
PC:11a6c     Total:71326      MisBP:350   MisRate:0.49%    MPKI:0.00
PC:11ae6     Total:32928      MisBP:352   MisRate:1.07%    MPKI:0.00
PC:11e7e     Total:41035      MisBP:374   MisRate:0.91%    MPKI:0.00
PC:14a5a     Total:118949      MisBP:375   MisRate:0.32%    MPKI:0.00
PC:11e18     Total:3442      MisBP:425   MisRate:12.35%    MPKI:0.00
PC:16752     Total:1895      MisBP:456   MisRate:24.06%    MPKI:0.00
PC:11a5e     Total:73137      MisBP:487   MisRate:0.67%    MPKI:0.00
PC:18b5a     Total:4451      MisBP:525   MisRate:11.80%    MPKI:0.00
PC:11ad0     Total:35664      MisBP:549   MisRate:1.54%    MPKI:0.00
PC:165e6     Total:4833      MisBP:620   MisRate:12.83%    MPKI:0.00
PC:165f8     Total:4283      MisBP:622   MisRate:14.52%    MPKI:0.00
PC:16740     Total:3738      MisBP:638   MisRate:17.07%    MPKI:0.00
PC:11a4a     Total:75996      MisBP:643   MisRate:0.85%    MPKI:0.00
PC:18c88     Total:15632      MisBP:646   MisRate:4.13%    MPKI:0.00
PC:18d68     Total:4373      MisBP:648   MisRate:14.82%    MPKI:0.00
PC:18bce     Total:5862      MisBP:726   MisRate:12.38%    MPKI:0.00
PC:11a3a     Total:80717      MisBP:772   MisRate:0.96%    MPKI:0.00
PC:11a82     Total:64226      MisBP:779   MisRate:1.21%    MPKI:0.00
PC:123d8     Total:22833      MisBP:783   MisRate:3.43%    MPKI:0.00
PC:11f64     Total:10685      MisBP:854   MisRate:7.99%    MPKI:0.00
PC:13086     Total:503853      MisBP:954   MisRate:0.19%    MPKI:0.00
PC:12d8a     Total:16224      MisBP:977   MisRate:6.02%    MPKI:0.00
PC:11a98     Total:47375      MisBP:1079   MisRate:2.28%    MPKI:0.00
PC:124aa     Total:8922      MisBP:1087   MisRate:12.18%    MPKI:0.00
PC:12430     Total:7178      MisBP:1132   MisRate:15.77%    MPKI:0.00
PC:11aba     Total:38871      MisBP:1223   MisRate:3.15%    MPKI:0.00
PC:18c5a     Total:14792      MisBP:1231   MisRate:8.32%    MPKI:0.00
PC:18bec     Total:14236      MisBP:1258   MisRate:8.84%    MPKI:0.00
PC:115d6     Total:121324      MisBP:1293   MisRate:1.07%    MPKI:0.00
PC:123f8     Total:8083      MisBP:1456   MisRate:18.01%    MPKI:0.00
PC:11a28     Total:60280      MisBP:1643   MisRate:2.73%    MPKI:0.01
PC:12476     Total:7779      MisBP:1651   MisRate:21.22%    MPKI:0.01
PC:18cd0     Total:15117      MisBP:1995   MisRate:13.20%    MPKI:0.01
PC:11594     Total:105354      MisBP:2246   MisRate:2.13%    MPKI:0.01
PC:18dd0     Total:78693      MisBP:2432   MisRate:3.09%    MPKI:0.01
PC:12242     Total:19760      MisBP:2458   MisRate:12.44%    MPKI:0.01
PC:11aa4     Total:46073      MisBP:2633   MisRate:5.71%    MPKI:0.01
PC:11f08     Total:12275      MisBP:2771   MisRate:22.57%    MPKI:0.01
PC:119fc     Total:304138      MisBP:4225   MisRate:1.39%    MPKI:0.01
PC:12030     Total:680542      MisBP:4327   MisRate:0.64%    MPKI:0.01
PC:12418     Total:124474      MisBP:4659   MisRate:3.74%    MPKI:0.02
PC:150d8     Total:88127      MisBP:4667   MisRate:5.30%    MPKI:0.02
PC:11e6a     Total:81298      MisBP:4767   MisRate:5.86%    MPKI:0.02
PC:115a4     Total:69751      MisBP:4804   MisRate:6.89%    MPKI:0.02
PC:130c2     Total:508058      MisBP:5089   MisRate:1.00%    MPKI:0.02
PC:11ec8     Total:28621      MisBP:5413   MisRate:18.91%    MPKI:0.02
PC:119f4     Total:320949      MisBP:5456   MisRate:1.70%    MPKI:0.02
PC:12454     Total:109115      MisBP:5699   MisRate:5.22%    MPKI:0.02
PC:1152e     Total:1206988      MisBP:5866   MisRate:0.49%    MPKI:0.02
PC:11a78     Total:69881      MisBP:5986   MisRate:8.57%    MPKI:0.02
PC:12102     Total:128545      MisBP:6197   MisRate:4.82%    MPKI:0.02
PC:119e4     Total:370708      MisBP:6282   MisRate:1.69%    MPKI:0.02
PC:11f5c     Total:1331779      MisBP:6939   MisRate:0.52%    MPKI:0.02
PC:122f2     Total:251886      MisBP:7941   MisRate:3.15%    MPKI:0.03
PC:150e2     Total:137578      MisBP:8142   MisRate:5.92%    MPKI:0.03
PC:123ba     Total:184354      MisBP:8405   MisRate:4.56%    MPKI:0.03
PC:11a20     Total:134850      MisBP:8448   MisRate:6.26%    MPKI:0.03
PC:11a8e     Total:63817      MisBP:8455   MisRate:13.25%    MPKI:0.03
PC:1234a     Total:220672      MisBP:8653   MisRate:3.92%    MPKI:0.03
PC:123c4     Total:30157      MisBP:9742   MisRate:32.30%    MPKI:0.03
PC:1546e     Total:113422      MisBP:9766   MisRate:8.61%    MPKI:0.03
PC:15402     Total:127144      MisBP:9778   MisRate:7.69%    MPKI:0.03
PC:119ec     Total:354269      MisBP:10215   MisRate:2.88%    MPKI:0.03
PC:11510     Total:1194132      MisBP:10250   MisRate:0.86%    MPKI:0.03
PC:1215e     Total:160173      MisBP:10304   MisRate:6.43%    MPKI:0.03
PC:1236c     Total:356620      MisBP:11489   MisRate:3.22%    MPKI:0.04
PC:122be     Total:343535      MisBP:12834   MisRate:3.74%    MPKI:0.04
PC:119dc     Total:502545      MisBP:12853   MisRate:2.56%    MPKI:0.04
PC:12314     Total:391963      MisBP:12990   MisRate:3.31%    MPKI:0.04
PC:1508e     Total:129161      MisBP:19397   MisRate:15.02%    MPKI:0.06
PC:12250     Total:147875      MisBP:21689   MisRate:14.67%    MPKI:0.07
PC:114d6     Total:1108554      MisBP:25412   MisRate:2.29%    MPKI:0.08
PC:11a04     Total:279205      MisBP:28763   MisRate:10.30%    MPKI:0.09
PC:11512     Total:1230064      MisBP:29851   MisRate:2.43%    MPKI:0.10
PC:12014     Total:390521      MisBP:39138   MisRate:10.02%    MPKI:0.13
PC:11a0c     Total:243794      MisBP:42395   MisRate:17.39%    MPKI:0.14
PC:12042     Total:518251      MisBP:43472   MisRate:8.39%    MPKI:0.14
PC:119d4     Total:691632      MisBP:47707   MisRate:6.90%    MPKI:0.15
PC:1508c     Total:615624      MisBP:51560   MisRate:8.38%    MPKI:0.17
PC:14a2e     Total:252984      MisBP:51677   MisRate:20.43%    MPKI:0.17
PC:115ca     Total:346127      MisBP:60230   MisRate:17.40%    MPKI:0.19
PC:11f40     Total:1260383      MisBP:60375   MisRate:4.79%    MPKI:0.19
PC:150f4     Total:2134650      MisBP:65407   MisRate:3.06%    MPKI:0.21
PC:119cc     Total:1083336      MisBP:74463   MisRate:6.87%    MPKI:0.24
PC:12040     Total:762347      MisBP:74869   MisRate:9.82%    MPKI:0.24
PC:119b6     Total:1510236      MisBP:78298   MisRate:5.18%    MPKI:0.25
PC:118d4     Total:947166      MisBP:84877   MisRate:8.96%    MPKI:0.27
PC:1238c     Total:461587      MisBP:84987   MisRate:18.41%    MPKI:0.27
PC:114de     Total:3304873      MisBP:88781   MisRate:2.69%    MPKI:0.29
PC:12334     Total:516960      MisBP:89537   MisRate:17.32%    MPKI:0.29
PC:122dc     Total:473189      MisBP:97261   MisRate:20.55%    MPKI:0.31
PC:1194e     Total:2136383      MisBP:375839   MisRate:17.59%    MPKI:1.21
PC:114f4     Total:4249998      MisBP:451512   MisRate:10.62%    MPKI:1.46
Totfetch:499588811  TotInsts:310000000  TotMis : inf%   MPKI : 7.66
=============finish sim!!!!!!=============
Done running SimPoint!
