Global frequency set at 1000000000000 ticks per second
 Register [printBranch()] ExitCallback !!!!!!! 
gem5 Simulator System.  https://www.gem5.org
gem5 is copyrighted software; use the --copyright option for details.

gem5 version 22.0.0.2
gem5 compiled Sep  7 2022 00:42:18
gem5 started Sep  7 2022 02:30:44
gem5 executing on a100, pid 2739909
command line: /data/zxf/gem5/gem5-prof/build/ARM/gem5.fast --outdir=/data/zxf/checkpoint/spec2006/401.bzip2/prof/bzip2_ckp_4 /data/zxf/gem5/gem5-prof/configs/example/se.py --cpu-type O3CPU --cpu-clock 1GHz --num-cpu 1 --l1d-hwp-type=BOPPrefetcher --caches --l2cache --l1i_size 32kB --l1d_size 32kB --l2_size 1MB --l1i_assoc 8 --l1d_assoc 8 --l2_assoc 16 --cacheline_size 64 --mem-type DDR3_2133_8x8 --mem-size 16GB --restore-simpoint-checkpoint -r 4 --checkpoint-dir /data/zxf/checkpoint/spec2006/401.bzip2/ckpt -c bzip2_base.gcc41-64bit -o 'input.source 280'

info: Standard input is not a terminal, disabling listeners.
Resuming from /data/zxf/checkpoint/spec2006/401.bzip2/ckpt/cpt.simpoint_03_inst_56990000000_weight_0.026426_interval_300000000_warmup_10000000
Resuming from SimPoint #3, start_inst:56990000000, weight:0.026426, interval:300000000, warmup:10000000
Switch at curTick count:10000
Switched CPUS @ tick 35129964339000
[(<m5.objects.ArmCPU.ArmAtomicSimpleCPU object at 0x7f184c6f3bb0>, <m5.objects.ArmCPU.ArmO3CPU object at 0x7f184c70be20>)]
switching cpus



+++++++++++++++++++++++++zxf print simpoint+++++++++++++++++++++++++++
Warmed up! Dumping and resetting stats!


=============start sim!!!!!!=============
PC:16352     Total:14534      MisBP:0   MisRate:0.00%    MPKI:0.00
PC:18b2c     Total:33      MisBP:0   MisRate:0.00%    MPKI:0.00
PC:1636e     Total:14484      MisBP:0   MisRate:0.00%    MPKI:0.00
PC:18b28     Total:330      MisBP:0   MisRate:0.00%    MPKI:0.00
PC:1636a     Total:14484      MisBP:0   MisRate:0.00%    MPKI:0.00
PC:16366     Total:14543      MisBP:0   MisRate:0.00%    MPKI:0.00
PC:16364     Total:14543      MisBP:0   MisRate:0.00%    MPKI:0.00
PC:16362     Total:14543      MisBP:0   MisRate:0.00%    MPKI:0.00
PC:1635e     Total:14534      MisBP:0   MisRate:0.00%    MPKI:0.00
PC:1635c     Total:14534      MisBP:0   MisRate:0.00%    MPKI:0.00
PC:16358     Total:14534      MisBP:0   MisRate:0.00%    MPKI:0.00
PC:16354     Total:14534      MisBP:0   MisRate:0.00%    MPKI:0.00
PC:16370     Total:14484      MisBP:0   MisRate:0.00%    MPKI:0.00
PC:16350     Total:14535      MisBP:0   MisRate:0.00%    MPKI:0.00
PC:1634e     Total:14508      MisBP:0   MisRate:0.00%    MPKI:0.00
PC:1634c     Total:14508      MisBP:0   MisRate:0.00%    MPKI:0.00
PC:1634a     Total:14508      MisBP:0   MisRate:0.00%    MPKI:0.00
PC:16348     Total:14508      MisBP:0   MisRate:0.00%    MPKI:0.00
PC:16346     Total:14508      MisBP:0   MisRate:0.00%    MPKI:0.00
PC:16344     Total:14487      MisBP:0   MisRate:0.00%    MPKI:0.00
PC:16340     Total:14487      MisBP:0   MisRate:0.00%    MPKI:0.00
PC:1633e     Total:14507      MisBP:0   MisRate:0.00%    MPKI:0.00
PC:1633c     Total:14507      MisBP:0   MisRate:0.00%    MPKI:0.00
PC:18b40     Total:28      MisBP:0   MisRate:0.00%    MPKI:0.00
PC:18b52     Total:11516      MisBP:0   MisRate:0.00%    MPKI:0.00
PC:16394     Total:14524      MisBP:0   MisRate:0.00%    MPKI:0.00
PC:18b4e     Total:28      MisBP:0   MisRate:0.00%    MPKI:0.00
PC:16390     Total:14524      MisBP:0   MisRate:0.00%    MPKI:0.00
PC:18b4c     Total:28      MisBP:0   MisRate:0.00%    MPKI:0.00
PC:1638e     Total:14524      MisBP:0   MisRate:0.00%    MPKI:0.00
PC:18b4a     Total:28      MisBP:0   MisRate:0.00%    MPKI:0.00
PC:1638c     Total:14524      MisBP:0   MisRate:0.00%    MPKI:0.00
PC:18b46     Total:28      MisBP:0   MisRate:0.00%    MPKI:0.00
PC:16388     Total:14477      MisBP:0   MisRate:0.00%    MPKI:0.00
PC:16384     Total:14477      MisBP:0   MisRate:0.00%    MPKI:0.00
PC:16338     Total:14507      MisBP:0   MisRate:0.00%    MPKI:0.00
PC:16382     Total:14477      MisBP:0   MisRate:0.00%    MPKI:0.00
PC:18b3e     Total:33      MisBP:0   MisRate:0.00%    MPKI:0.00
PC:16380     Total:14476      MisBP:0   MisRate:0.00%    MPKI:0.00
PC:1637e     Total:14505      MisBP:0   MisRate:0.00%    MPKI:0.00
PC:18b3a     Total:33      MisBP:0   MisRate:0.00%    MPKI:0.00
PC:1637c     Total:14484      MisBP:0   MisRate:0.00%    MPKI:0.00
PC:18b36     Total:33      MisBP:0   MisRate:0.00%    MPKI:0.00
PC:16378     Total:14484      MisBP:0   MisRate:0.00%    MPKI:0.00
PC:18b32     Total:33      MisBP:0   MisRate:0.00%    MPKI:0.00
PC:16374     Total:14484      MisBP:0   MisRate:0.00%    MPKI:0.00
PC:162de     Total:14611      MisBP:0   MisRate:0.00%    MPKI:0.00
PC:162f8     Total:14635      MisBP:0   MisRate:0.00%    MPKI:0.00
PC:162f4     Total:14635      MisBP:0   MisRate:0.00%    MPKI:0.00
PC:162f2     Total:14635      MisBP:0   MisRate:0.00%    MPKI:0.00
PC:162ee     Total:14635      MisBP:0   MisRate:0.00%    MPKI:0.00
PC:162ec     Total:14636      MisBP:0   MisRate:0.00%    MPKI:0.00
PC:162ea     Total:14636      MisBP:0   MisRate:0.00%    MPKI:0.00
PC:162e8     Total:14615      MisBP:0   MisRate:0.00%    MPKI:0.00
PC:162e6     Total:14615      MisBP:0   MisRate:0.00%    MPKI:0.00
PC:162e4     Total:14614      MisBP:0   MisRate:0.00%    MPKI:0.00
PC:162e2     Total:14614      MisBP:0   MisRate:0.00%    MPKI:0.00
PC:162e0     Total:14611      MisBP:0   MisRate:0.00%    MPKI:0.00
PC:162fa     Total:14635      MisBP:0   MisRate:0.00%    MPKI:0.00
PC:162da     Total:14590      MisBP:0   MisRate:0.00%    MPKI:0.00
PC:162d8     Total:14590      MisBP:0   MisRate:0.00%    MPKI:0.00
PC:162d6     Total:14590      MisBP:0   MisRate:0.00%    MPKI:0.00
PC:162d4     Total:14590      MisBP:0   MisRate:0.00%    MPKI:0.00
PC:162d2     Total:14570      MisBP:0   MisRate:0.00%    MPKI:0.00
PC:162ce     Total:14570      MisBP:0   MisRate:0.00%    MPKI:0.00
PC:162cc     Total:14570      MisBP:0   MisRate:0.00%    MPKI:0.00
PC:162ca     Total:14570      MisBP:0   MisRate:0.00%    MPKI:0.00
PC:162c8     Total:14568      MisBP:0   MisRate:0.00%    MPKI:0.00
PC:162c6     Total:14568      MisBP:0   MisRate:0.00%    MPKI:0.00
PC:1631a     Total:14546      MisBP:0   MisRate:0.00%    MPKI:0.00
PC:16334     Total:14507      MisBP:0   MisRate:0.00%    MPKI:0.00
PC:16332     Total:14507      MisBP:0   MisRate:0.00%    MPKI:0.00
PC:1632e     Total:14507      MisBP:0   MisRate:0.00%    MPKI:0.00
PC:1632c     Total:14507      MisBP:0   MisRate:0.00%    MPKI:0.00
PC:1632a     Total:14566      MisBP:0   MisRate:0.00%    MPKI:0.00
PC:16328     Total:14562      MisBP:0   MisRate:0.00%    MPKI:0.00
PC:16326     Total:14541      MisBP:0   MisRate:0.00%    MPKI:0.00
PC:16324     Total:14541      MisBP:0   MisRate:0.00%    MPKI:0.00
PC:16322     Total:14543      MisBP:0   MisRate:0.00%    MPKI:0.00
PC:1631e     Total:14540      MisBP:0   MisRate:0.00%    MPKI:0.00
PC:1631c     Total:14540      MisBP:0   MisRate:0.00%    MPKI:0.00
PC:16396     Total:14503      MisBP:0   MisRate:0.00%    MPKI:0.00
PC:16316     Total:14561      MisBP:0   MisRate:0.00%    MPKI:0.00
PC:16312     Total:14562      MisBP:0   MisRate:0.00%    MPKI:0.00
PC:16310     Total:14567      MisBP:0   MisRate:0.00%    MPKI:0.00
PC:1630c     Total:14567      MisBP:0   MisRate:0.00%    MPKI:0.00
PC:16308     Total:14570      MisBP:0   MisRate:0.00%    MPKI:0.00
PC:16306     Total:14570      MisBP:0   MisRate:0.00%    MPKI:0.00
PC:16304     Total:14570      MisBP:0   MisRate:0.00%    MPKI:0.00
PC:16300     Total:14572      MisBP:0   MisRate:0.00%    MPKI:0.00
PC:162fe     Total:14607      MisBP:0   MisRate:0.00%    MPKI:0.00
PC:162fc     Total:14607      MisBP:0   MisRate:0.00%    MPKI:0.00
PC:163e6     Total:14621      MisBP:0   MisRate:0.00%    MPKI:0.00
PC:163f0     Total:14754      MisBP:0   MisRate:0.00%    MPKI:0.00
PC:18bac     Total:56      MisBP:0   MisRate:0.00%    MPKI:0.00
PC:1dbee     Total:1043      MisBP:0   MisRate:0.00%    MPKI:0.00
PC:163ee     Total:14754      MisBP:0   MisRate:0.00%    MPKI:0.00
PC:18baa     Total:56      MisBP:0   MisRate:0.00%    MPKI:0.00
PC:1dbec     Total:2096      MisBP:0   MisRate:0.00%    MPKI:0.00
PC:163ec     Total:14754      MisBP:0   MisRate:0.00%    MPKI:0.00
PC:163ea     Total:14732      MisBP:0   MisRate:0.00%    MPKI:0.00
PC:18ba6     Total:56      MisBP:0   MisRate:0.00%    MPKI:0.00
PC:163e8     Total:14732      MisBP:0   MisRate:0.00%    MPKI:0.00
PC:18ba4     Total:56      MisBP:0   MisRate:0.00%    MPKI:0.00
PC:1dbf0     Total:521      MisBP:0   MisRate:0.00%    MPKI:0.00
PC:163e4     Total:14621      MisBP:0   MisRate:0.00%    MPKI:0.00
PC:18ba0     Total:56      MisBP:0   MisRate:0.00%    MPKI:0.00
PC:163e2     Total:14640      MisBP:0   MisRate:0.00%    MPKI:0.00
PC:163e0     Total:14619      MisBP:0   MisRate:0.00%    MPKI:0.00
PC:18b9a     Total:52      MisBP:0   MisRate:0.00%    MPKI:0.00
PC:163dc     Total:14619      MisBP:0   MisRate:0.00%    MPKI:0.00
PC:163da     Total:14619      MisBP:0   MisRate:0.00%    MPKI:0.00
PC:18b94     Total:52      MisBP:0   MisRate:0.00%    MPKI:0.00
PC:163d6     Total:14619      MisBP:0   MisRate:0.00%    MPKI:0.00
PC:18b92     Total:52      MisBP:0   MisRate:0.00%    MPKI:0.00
PC:18bb8     Total:7950      MisBP:0   MisRate:0.00%    MPKI:0.00
PC:16414     Total:14745      MisBP:0   MisRate:0.00%    MPKI:0.00
PC:16410     Total:14745      MisBP:0   MisRate:0.00%    MPKI:0.00
PC:1640e     Total:14745      MisBP:0   MisRate:0.00%    MPKI:0.00
PC:18bc8     Total:7683      MisBP:0   MisRate:0.00%    MPKI:0.00
PC:1640a     Total:14747      MisBP:0   MisRate:0.00%    MPKI:0.00
PC:18bc4     Total:15491      MisBP:0   MisRate:0.00%    MPKI:0.00
PC:16406     Total:14747      MisBP:0   MisRate:0.00%    MPKI:0.00
PC:16404     Total:14747      MisBP:0   MisRate:0.00%    MPKI:0.00
PC:16400     Total:14747      MisBP:0   MisRate:0.00%    MPKI:0.00
PC:18bbc     Total:7940      MisBP:0   MisRate:0.00%    MPKI:0.00
PC:163fe     Total:14829      MisBP:0   MisRate:0.00%    MPKI:0.00
PC:163d4     Total:14619      MisBP:0   MisRate:0.00%    MPKI:0.00
PC:1dbfa     Total:492      MisBP:0   MisRate:0.00%    MPKI:0.00
PC:163fa     Total:14804      MisBP:0   MisRate:0.00%    MPKI:0.00
PC:163f8     Total:14806      MisBP:0   MisRate:0.00%    MPKI:0.00
PC:18bb2     Total:7969      MisBP:0   MisRate:0.00%    MPKI:0.00
PC:1dbf4     Total:984      MisBP:0   MisRate:0.00%    MPKI:0.00
PC:163f4     Total:14751      MisBP:0   MisRate:0.00%    MPKI:0.00
PC:18bb0     Total:7971      MisBP:0   MisRate:0.00%    MPKI:0.00
PC:1dbf2     Total:521      MisBP:0   MisRate:0.00%    MPKI:0.00
PC:163f2     Total:14754      MisBP:0   MisRate:0.00%    MPKI:0.00
PC:18bae     Total:56      MisBP:0   MisRate:0.00%    MPKI:0.00
PC:163a6     Total:14501      MisBP:0   MisRate:0.00%    MPKI:0.00
PC:163b6     Total:14510      MisBP:0   MisRate:0.00%    MPKI:0.00
PC:18b70     Total:35      MisBP:0   MisRate:0.00%    MPKI:0.00
PC:163b2     Total:14510      MisBP:0   MisRate:0.00%    MPKI:0.00
PC:18b6c     Total:35      MisBP:0   MisRate:0.00%    MPKI:0.00
PC:163ae     Total:14510      MisBP:0   MisRate:0.00%    MPKI:0.00
PC:18b6a     Total:35      MisBP:0   MisRate:0.00%    MPKI:0.00
PC:163ac     Total:14510      MisBP:0   MisRate:0.00%    MPKI:0.00
PC:18b68     Total:35      MisBP:0   MisRate:0.00%    MPKI:0.00
PC:163aa     Total:14528      MisBP:0   MisRate:0.00%    MPKI:0.00
PC:18b66     Total:35      MisBP:0   MisRate:0.00%    MPKI:0.00
PC:163a8     Total:14496      MisBP:0   MisRate:0.00%    MPKI:0.00
PC:18b74     Total:35      MisBP:0   MisRate:0.00%    MPKI:0.00
PC:163a4     Total:14502      MisBP:0   MisRate:0.00%    MPKI:0.00
PC:18b60     Total:12130      MisBP:0   MisRate:0.00%    MPKI:0.00
PC:163a2     Total:14502      MisBP:0   MisRate:0.00%    MPKI:0.00
PC:18b5e     Total:6065      MisBP:0   MisRate:0.00%    MPKI:0.00
PC:163a0     Total:14502      MisBP:0   MisRate:0.00%    MPKI:0.00
PC:18b5c     Total:4490      MisBP:0   MisRate:0.00%    MPKI:0.00
PC:1639e     Total:14502      MisBP:0   MisRate:0.00%    MPKI:0.00
PC:1639a     Total:14502      MisBP:0   MisRate:0.00%    MPKI:0.00
PC:18b56     Total:5758      MisBP:0   MisRate:0.00%    MPKI:0.00
PC:16398     Total:14503      MisBP:0   MisRate:0.00%    MPKI:0.00
PC:18b84     Total:34      MisBP:0   MisRate:0.00%    MPKI:0.00
PC:163d2     Total:14616      MisBP:0   MisRate:0.00%    MPKI:0.00
PC:18b8e     Total:48      MisBP:0   MisRate:0.00%    MPKI:0.00
PC:163d0     Total:14616      MisBP:0   MisRate:0.00%    MPKI:0.00
PC:18b8c     Total:48      MisBP:0   MisRate:0.00%    MPKI:0.00
PC:163ce     Total:14618      MisBP:0   MisRate:0.00%    MPKI:0.00
PC:163cc     Total:14575      MisBP:0   MisRate:0.00%    MPKI:0.00
PC:18b88     Total:48      MisBP:0   MisRate:0.00%    MPKI:0.00
PC:163ca     Total:14575      MisBP:0   MisRate:0.00%    MPKI:0.00
PC:18b86     Total:34      MisBP:0   MisRate:0.00%    MPKI:0.00
PC:163c8     Total:14575      MisBP:0   MisRate:0.00%    MPKI:0.00
PC:162c4     Total:14568      MisBP:0   MisRate:0.00%    MPKI:0.00
PC:163c6     Total:14556      MisBP:0   MisRate:0.00%    MPKI:0.00
PC:18b82     Total:34      MisBP:0   MisRate:0.00%    MPKI:0.00
PC:163c4     Total:14557      MisBP:0   MisRate:0.00%    MPKI:0.00
PC:18b80     Total:34      MisBP:0   MisRate:0.00%    MPKI:0.00
PC:163c2     Total:14529      MisBP:0   MisRate:0.00%    MPKI:0.00
PC:18b7c     Total:35      MisBP:0   MisRate:0.00%    MPKI:0.00
PC:163be     Total:14530      MisBP:0   MisRate:0.00%    MPKI:0.00
PC:163ba     Total:14574      MisBP:0   MisRate:0.00%    MPKI:0.00
PC:18b76     Total:35      MisBP:0   MisRate:0.00%    MPKI:0.00
PC:163b8     Total:14574      MisBP:0   MisRate:0.00%    MPKI:0.00
PC:161b0     Total:14514      MisBP:0   MisRate:0.00%    MPKI:0.00
PC:161ce     Total:14488      MisBP:0   MisRate:0.00%    MPKI:0.00
PC:161cc     Total:14493      MisBP:0   MisRate:0.00%    MPKI:0.00
PC:161ca     Total:14493      MisBP:0   MisRate:0.00%    MPKI:0.00
PC:161c8     Total:14472      MisBP:0   MisRate:0.00%    MPKI:0.00
PC:161c4     Total:14472      MisBP:0   MisRate:0.00%    MPKI:0.00
PC:161c0     Total:14472      MisBP:0   MisRate:0.00%    MPKI:0.00
PC:161be     Total:14516      MisBP:0   MisRate:0.00%    MPKI:0.00
PC:161bc     Total:14495      MisBP:0   MisRate:0.00%    MPKI:0.00
PC:161b8     Total:14496      MisBP:0   MisRate:0.00%    MPKI:0.00
PC:161b4     Total:14514      MisBP:0   MisRate:0.00%    MPKI:0.00
PC:161b2     Total:14514      MisBP:0   MisRate:0.00%    MPKI:0.00
PC:161d0     Total:14488      MisBP:0   MisRate:0.00%    MPKI:0.00
PC:161ae     Total:14493      MisBP:0   MisRate:0.00%    MPKI:0.00
PC:161ac     Total:14493      MisBP:0   MisRate:0.00%    MPKI:0.00
PC:161aa     Total:14493      MisBP:0   MisRate:0.00%    MPKI:0.00
PC:161a8     Total:14493      MisBP:0   MisRate:0.00%    MPKI:0.00
PC:161a6     Total:14513      MisBP:0   MisRate:0.00%    MPKI:0.00
PC:161a4     Total:14514      MisBP:0   MisRate:0.00%    MPKI:0.00
PC:161a0     Total:14514      MisBP:0   MisRate:0.00%    MPKI:0.00
PC:1619e     Total:14514      MisBP:0   MisRate:0.00%    MPKI:0.00
PC:1619c     Total:14514      MisBP:0   MisRate:0.00%    MPKI:0.00
PC:1619a     Total:14514      MisBP:0   MisRate:0.00%    MPKI:0.00
PC:161ea     Total:14517      MisBP:0   MisRate:0.00%    MPKI:0.00
PC:111b8     Total:56      MisBP:0   MisRate:0.00%    MPKI:0.00
PC:161f8     Total:14538      MisBP:0   MisRate:0.00%    MPKI:0.00
PC:161f6     Total:14540      MisBP:0   MisRate:0.00%    MPKI:0.00
PC:111b4     Total:56      MisBP:0   MisRate:0.00%    MPKI:0.00
PC:161f4     Total:14540      MisBP:0   MisRate:0.00%    MPKI:0.00
PC:161f2     Total:14540      MisBP:0   MisRate:0.00%    MPKI:0.00
PC:111b0     Total:56      MisBP:0   MisRate:0.00%    MPKI:0.00
PC:161f0     Total:14541      MisBP:0   MisRate:0.00%    MPKI:0.00
PC:111ae     Total:56      MisBP:0   MisRate:0.00%    MPKI:0.00
PC:161ee     Total:14541      MisBP:0   MisRate:0.00%    MPKI:0.00
PC:111ac     Total:56      MisBP:0   MisRate:0.00%    MPKI:0.00
PC:16196     Total:14534      MisBP:0   MisRate:0.00%    MPKI:0.00
PC:111a8     Total:57      MisBP:0   MisRate:0.00%    MPKI:0.00
PC:161e8     Total:14494      MisBP:0   MisRate:0.00%    MPKI:0.00
PC:111a6     Total:57      MisBP:0   MisRate:0.00%    MPKI:0.00
PC:161e6     Total:14496      MisBP:0   MisRate:0.00%    MPKI:0.00
PC:111a4     Total:57      MisBP:0   MisRate:0.00%    MPKI:0.00
PC:161dc     Total:14498      MisBP:0   MisRate:0.00%    MPKI:0.00
PC:161d8     Total:14501      MisBP:0   MisRate:0.00%    MPKI:0.00
PC:161d4     Total:14502      MisBP:0   MisRate:0.00%    MPKI:0.00
PC:161d2     Total:14486      MisBP:0   MisRate:0.00%    MPKI:0.00
PC:11190     Total:399      MisBP:0   MisRate:0.00%    MPKI:0.00
PC:16142     Total:14501      MisBP:0   MisRate:0.00%    MPKI:0.00
PC:16156     Total:14536      MisBP:0   MisRate:0.00%    MPKI:0.00
PC:16154     Total:14536      MisBP:0   MisRate:0.00%    MPKI:0.00
PC:16150     Total:14536      MisBP:0   MisRate:0.00%    MPKI:0.00
PC:1614e     Total:14536      MisBP:0   MisRate:0.00%    MPKI:0.00
PC:1614c     Total:14535      MisBP:0   MisRate:0.00%    MPKI:0.00
PC:111ce     Total:26      MisBP:0   MisRate:0.00%    MPKI:0.00
PC:1614a     Total:14535      MisBP:0   MisRate:0.00%    MPKI:0.00
PC:16148     Total:14535      MisBP:0   MisRate:0.00%    MPKI:0.00
PC:111ca     Total:37      MisBP:0   MisRate:0.00%    MPKI:0.00
PC:16146     Total:14510      MisBP:0   MisRate:0.00%    MPKI:0.00
PC:16144     Total:14510      MisBP:0   MisRate:0.00%    MPKI:0.00
PC:111da     Total:26      MisBP:0   MisRate:0.00%    MPKI:0.00
PC:1613e     Total:14501      MisBP:0   MisRate:0.00%    MPKI:0.00
PC:1613a     Total:14543      MisBP:0   MisRate:0.00%    MPKI:0.00
PC:111bc     Total:56      MisBP:0   MisRate:0.00%    MPKI:0.00
PC:16138     Total:14543      MisBP:0   MisRate:0.00%    MPKI:0.00
PC:16134     Total:14543      MisBP:0   MisRate:0.00%    MPKI:0.00
PC:16132     Total:14543      MisBP:0   MisRate:0.00%    MPKI:0.00
PC:16130     Total:14543      MisBP:0   MisRate:0.00%    MPKI:0.00
PC:1612e     Total:14543      MisBP:0   MisRate:0.00%    MPKI:0.00
PC:1612c     Total:14539      MisBP:0   MisRate:0.00%    MPKI:0.00
PC:1612a     Total:14540      MisBP:0   MisRate:0.00%    MPKI:0.00
PC:16178     Total:14559      MisBP:0   MisRate:0.00%    MPKI:0.00
PC:16194     Total:14534      MisBP:0   MisRate:0.00%    MPKI:0.00
PC:16192     Total:14536      MisBP:0   MisRate:0.00%    MPKI:0.00
PC:1618e     Total:14515      MisBP:0   MisRate:0.00%    MPKI:0.00
PC:1618a     Total:14515      MisBP:0   MisRate:0.00%    MPKI:0.00
PC:16188     Total:14515      MisBP:0   MisRate:0.00%    MPKI:0.00
PC:16186     Total:14514      MisBP:0   MisRate:0.00%    MPKI:0.00
PC:16184     Total:14514      MisBP:0   MisRate:0.00%    MPKI:0.00
PC:16182     Total:14493      MisBP:0   MisRate:0.00%    MPKI:0.00
PC:1617e     Total:14493      MisBP:0   MisRate:0.00%    MPKI:0.00
PC:1617a     Total:14538      MisBP:0   MisRate:0.00%    MPKI:0.00
PC:161fa     Total:14559      MisBP:0   MisRate:0.00%    MPKI:0.00
PC:16174     Total:14559      MisBP:0   MisRate:0.00%    MPKI:0.00
PC:16170     Total:14559      MisBP:0   MisRate:0.00%    MPKI:0.00
PC:1616c     Total:14559      MisBP:0   MisRate:0.00%    MPKI:0.00
PC:16168     Total:14559      MisBP:0   MisRate:0.00%    MPKI:0.00
PC:16166     Total:14559      MisBP:0   MisRate:0.00%    MPKI:0.00
PC:16164     Total:14581      MisBP:0   MisRate:0.00%    MPKI:0.00
PC:16162     Total:14581      MisBP:0   MisRate:0.00%    MPKI:0.00
PC:16160     Total:14581      MisBP:0   MisRate:0.00%    MPKI:0.00
PC:1615e     Total:14536      MisBP:0   MisRate:0.00%    MPKI:0.00
PC:1615a     Total:14536      MisBP:0   MisRate:0.00%    MPKI:0.00
PC:16270     Total:14588      MisBP:0   MisRate:0.00%    MPKI:0.00
PC:1628c     Total:14509      MisBP:0   MisRate:0.00%    MPKI:0.00
PC:1628a     Total:14497      MisBP:0   MisRate:0.00%    MPKI:0.00
PC:16288     Total:14497      MisBP:0   MisRate:0.00%    MPKI:0.00
PC:16284     Total:14497      MisBP:0   MisRate:0.00%    MPKI:0.00
PC:16282     Total:14497      MisBP:0   MisRate:0.00%    MPKI:0.00
PC:16280     Total:14497      MisBP:0   MisRate:0.00%    MPKI:0.00
PC:1627e     Total:14556      MisBP:0   MisRate:0.00%    MPKI:0.00
PC:1627c     Total:14556      MisBP:0   MisRate:0.00%    MPKI:0.00
PC:1627a     Total:14556      MisBP:0   MisRate:0.00%    MPKI:0.00
PC:16276     Total:14588      MisBP:0   MisRate:0.00%    MPKI:0.00
PC:16274     Total:14588      MisBP:0   MisRate:0.00%    MPKI:0.00
PC:1628e     Total:14509      MisBP:0   MisRate:0.00%    MPKI:0.00
PC:1626e     Total:14588      MisBP:0   MisRate:0.00%    MPKI:0.00
PC:1626a     Total:14588      MisBP:0   MisRate:0.00%    MPKI:0.00
PC:16268     Total:14588      MisBP:0   MisRate:0.00%    MPKI:0.00
PC:16266     Total:14589      MisBP:0   MisRate:0.00%    MPKI:0.00
PC:16264     Total:14589      MisBP:0   MisRate:0.00%    MPKI:0.00
PC:16262     Total:14592      MisBP:0   MisRate:0.00%    MPKI:0.00
PC:16260     Total:14592      MisBP:0   MisRate:0.00%    MPKI:0.00
PC:1625c     Total:14592      MisBP:0   MisRate:0.00%    MPKI:0.00
PC:1625a     Total:14592      MisBP:0   MisRate:0.00%    MPKI:0.00
PC:16258     Total:14592      MisBP:0   MisRate:0.00%    MPKI:0.00
PC:162a6     Total:14570      MisBP:0   MisRate:0.00%    MPKI:0.00
PC:162c0     Total:14568      MisBP:0   MisRate:0.00%    MPKI:0.00
PC:162be     Total:14653      MisBP:0   MisRate:0.00%    MPKI:0.00
PC:162bc     Total:14653      MisBP:0   MisRate:0.00%    MPKI:0.00
PC:162ba     Total:14633      MisBP:0   MisRate:0.00%    MPKI:0.00
PC:162b6     Total:14633      MisBP:0   MisRate:0.00%    MPKI:0.00
PC:162b4     Total:14633      MisBP:0   MisRate:0.00%    MPKI:0.00
PC:162b2     Total:14633      MisBP:0   MisRate:0.00%    MPKI:0.00
PC:162b0     Total:14589      MisBP:0   MisRate:0.00%    MPKI:0.00
PC:162ac     Total:14589      MisBP:0   MisRate:0.00%    MPKI:0.00
PC:162aa     Total:14589      MisBP:0   MisRate:0.00%    MPKI:0.00
PC:162a8     Total:14591      MisBP:0   MisRate:0.00%    MPKI:0.00
PC:16256     Total:14593      MisBP:0   MisRate:0.00%    MPKI:0.00
PC:162a4     Total:14570      MisBP:0   MisRate:0.00%    MPKI:0.00
PC:162a2     Total:14572      MisBP:0   MisRate:0.00%    MPKI:0.00
PC:162a0     Total:14572      MisBP:0   MisRate:0.00%    MPKI:0.00
PC:1629e     Total:14529      MisBP:0   MisRate:0.00%    MPKI:0.00
PC:1629c     Total:14530      MisBP:0   MisRate:0.00%    MPKI:0.00
PC:1629a     Total:14529      MisBP:0   MisRate:0.00%    MPKI:0.00
PC:16296     Total:14530      MisBP:0   MisRate:0.00%    MPKI:0.00
PC:16294     Total:14530      MisBP:0   MisRate:0.00%    MPKI:0.00
PC:16292     Total:14530      MisBP:0   MisRate:0.00%    MPKI:0.00
PC:16290     Total:14509      MisBP:0   MisRate:0.00%    MPKI:0.00
PC:111d0     Total:26      MisBP:0   MisRate:0.00%    MPKI:0.00
PC:16226     Total:14587      MisBP:0   MisRate:0.00%    MPKI:0.00
PC:111e4     Total:21      MisBP:0   MisRate:0.00%    MPKI:0.00
PC:16224     Total:14587      MisBP:0   MisRate:0.00%    MPKI:0.00
PC:16220     Total:14529      MisBP:0   MisRate:0.00%    MPKI:0.00
PC:1621a     Total:14508      MisBP:0   MisRate:0.00%    MPKI:0.00
PC:111d8     Total:26      MisBP:0   MisRate:0.00%    MPKI:0.00
PC:16216     Total:14510      MisBP:0   MisRate:0.00%    MPKI:0.00
PC:111d4     Total:26      MisBP:0   MisRate:0.00%    MPKI:0.00
PC:16214     Total:14510      MisBP:0   MisRate:0.00%    MPKI:0.00
PC:111d2     Total:26      MisBP:0   MisRate:0.00%    MPKI:0.00
PC:16212     Total:14512      MisBP:0   MisRate:0.00%    MPKI:0.00
PC:111e6     Total:21      MisBP:0   MisRate:0.00%    MPKI:0.00
PC:1620e     Total:14512      MisBP:0   MisRate:0.00%    MPKI:0.00
PC:1620a     Total:14516      MisBP:0   MisRate:0.00%    MPKI:0.00
PC:111c8     Total:37      MisBP:0   MisRate:0.00%    MPKI:0.00
PC:16208     Total:14516      MisBP:0   MisRate:0.00%    MPKI:0.00
PC:111c6     Total:37      MisBP:0   MisRate:0.00%    MPKI:0.00
PC:16204     Total:14520      MisBP:0   MisRate:0.00%    MPKI:0.00
PC:111c2     Total:37      MisBP:0   MisRate:0.00%    MPKI:0.00
PC:16200     Total:14520      MisBP:0   MisRate:0.00%    MPKI:0.00
PC:111be     Total:37      MisBP:0   MisRate:0.00%    MPKI:0.00
PC:161fc     Total:14559      MisBP:0   MisRate:0.00%    MPKI:0.00
PC:1623e     Total:14606      MisBP:0   MisRate:0.00%    MPKI:0.00
PC:16254     Total:14593      MisBP:0   MisRate:0.00%    MPKI:0.00
PC:16252     Total:14594      MisBP:0   MisRate:0.00%    MPKI:0.00
PC:16250     Total:14630      MisBP:0   MisRate:0.00%    MPKI:0.00
PC:1624e     Total:14630      MisBP:0   MisRate:0.00%    MPKI:0.00
PC:1624c     Total:14630      MisBP:0   MisRate:0.00%    MPKI:0.00
PC:16248     Total:14630      MisBP:0   MisRate:0.00%    MPKI:0.00
PC:16246     Total:14630      MisBP:0   MisRate:0.00%    MPKI:0.00
PC:16244     Total:14631      MisBP:0   MisRate:0.00%    MPKI:0.00
PC:16242     Total:14585      MisBP:0   MisRate:0.00%    MPKI:0.00
PC:16240     Total:14585      MisBP:0   MisRate:0.00%    MPKI:0.00
PC:16416     Total:14745      MisBP:0   MisRate:0.00%    MPKI:0.00
PC:1623c     Total:14606      MisBP:0   MisRate:0.00%    MPKI:0.00
PC:1623a     Total:14569      MisBP:0   MisRate:0.00%    MPKI:0.00
PC:16238     Total:14569      MisBP:0   MisRate:0.00%    MPKI:0.00
PC:16236     Total:14572      MisBP:0   MisRate:0.00%    MPKI:0.00
PC:16232     Total:14583      MisBP:0   MisRate:0.00%    MPKI:0.00
PC:111f0     Total:19      MisBP:0   MisRate:0.00%    MPKI:0.00
PC:1622c     Total:14583      MisBP:0   MisRate:0.00%    MPKI:0.00
PC:111ea     Total:21      MisBP:0   MisRate:0.00%    MPKI:0.00
PC:1622a     Total:14585      MisBP:0   MisRate:0.00%    MPKI:0.00
PC:16228     Total:14587      MisBP:0   MisRate:0.00%    MPKI:0.00
PC:1655e     Total:1      MisBP:0   MisRate:0.00%    MPKI:0.00
PC:3973a     Total:2      MisBP:0   MisRate:0.00%    MPKI:0.00
PC:1656a     Total:1      MisBP:0   MisRate:0.00%    MPKI:0.00
PC:39738     Total:2      MisBP:0   MisRate:0.00%    MPKI:0.00
PC:18d26     Total:7126      MisBP:0   MisRate:0.00%    MPKI:0.00
PC:16568     Total:1      MisBP:0   MisRate:0.00%    MPKI:0.00
PC:39736     Total:2      MisBP:0   MisRate:0.00%    MPKI:0.00
PC:18d22     Total:7154      MisBP:0   MisRate:0.00%    MPKI:0.00
PC:16564     Total:1      MisBP:0   MisRate:0.00%    MPKI:0.00
PC:39732     Total:2      MisBP:0   MisRate:0.00%    MPKI:0.00
PC:16562     Total:1      MisBP:0   MisRate:0.00%    MPKI:0.00
PC:39730     Total:3      MisBP:0   MisRate:0.00%    MPKI:0.00
PC:1656c     Total:1      MisBP:0   MisRate:0.00%    MPKI:0.00
PC:3972c     Total:3      MisBP:0   MisRate:0.00%    MPKI:0.00
PC:18d18     Total:7166      MisBP:0   MisRate:0.00%    MPKI:0.00
PC:1655a     Total:1      MisBP:0   MisRate:0.00%    MPKI:0.00
PC:18d14     Total:7194      MisBP:0   MisRate:0.00%    MPKI:0.00
PC:16556     Total:1      MisBP:0   MisRate:0.00%    MPKI:0.00
PC:39724     Total:3      MisBP:0   MisRate:0.00%    MPKI:0.00
PC:18d12     Total:7202      MisBP:0   MisRate:0.00%    MPKI:0.00
PC:16554     Total:1      MisBP:0   MisRate:0.00%    MPKI:0.00
PC:39722     Total:3      MisBP:0   MisRate:0.00%    MPKI:0.00
PC:18d0e     Total:7202      MisBP:0   MisRate:0.00%    MPKI:0.00
PC:1549e     Total:7      MisBP:0   MisRate:0.00%    MPKI:0.00
PC:12db6     Total:1187      MisBP:0   MisRate:0.00%    MPKI:0.00
PC:29364     Total:6      MisBP:0   MisRate:0.00%    MPKI:0.00
PC:1525c     Total:7      MisBP:0   MisRate:0.00%    MPKI:0.00
PC:15574     Total:14331      MisBP:0   MisRate:0.00%    MPKI:0.00
PC:2967c     Total:108      MisBP:0   MisRate:0.00%    MPKI:0.00
PC:12db4     Total:1187      MisBP:0   MisRate:0.00%    MPKI:0.00
PC:15572     Total:14331      MisBP:0   MisRate:0.00%    MPKI:0.00
PC:154b4     Total:174      MisBP:0   MisRate:0.00%    MPKI:0.00
PC:295bc     Total:1430      MisBP:0   MisRate:0.00%    MPKI:0.00
PC:154ac     Total:7      MisBP:0   MisRate:0.00%    MPKI:0.00
PC:295b4     Total:1430      MisBP:0   MisRate:0.00%    MPKI:0.00
PC:16550     Total:14556      MisBP:0   MisRate:0.00%    MPKI:0.00
PC:1549a     Total:7      MisBP:0   MisRate:0.00%    MPKI:0.00
PC:15496     Total:14333      MisBP:0   MisRate:0.00%    MPKI:0.00
PC:15492     Total:14334      MisBP:0   MisRate:0.00%    MPKI:0.00
PC:1548e     Total:14334      MisBP:0   MisRate:0.00%    MPKI:0.00
PC:15486     Total:14334      MisBP:0   MisRate:0.00%    MPKI:0.00
PC:16572     Total:1      MisBP:0   MisRate:0.00%    MPKI:0.00
PC:18d2e     Total:7014      MisBP:0   MisRate:0.00%    MPKI:0.00
PC:16570     Total:1      MisBP:0   MisRate:0.00%    MPKI:0.00
PC:3973e     Total:1      MisBP:0   MisRate:0.00%    MPKI:0.00
PC:18d2a     Total:7078      MisBP:0   MisRate:0.00%    MPKI:0.00
PC:16518     Total:14628      MisBP:0   MisRate:0.00%    MPKI:0.00
PC:16526     Total:14665      MisBP:0   MisRate:0.00%    MPKI:0.00
PC:18ce2     Total:27623      MisBP:0   MisRate:0.00%    MPKI:0.00
PC:16524     Total:14665      MisBP:0   MisRate:0.00%    MPKI:0.00
PC:16522     Total:14665      MisBP:0   MisRate:0.00%    MPKI:0.00
PC:18cde     Total:27625      MisBP:0   MisRate:0.00%    MPKI:0.00
PC:16520     Total:14684      MisBP:0   MisRate:0.00%    MPKI:0.00
PC:18cdc     Total:27653      MisBP:0   MisRate:0.00%    MPKI:0.00
PC:1651e     Total:14684      MisBP:0   MisRate:0.00%    MPKI:0.00
PC:18cda     Total:27676      MisBP:0   MisRate:0.00%    MPKI:0.00
PC:1651c     Total:14647      MisBP:0   MisRate:0.00%    MPKI:0.00
PC:1651a     Total:14647      MisBP:0   MisRate:0.00%    MPKI:0.00
PC:1652a     Total:14665      MisBP:0   MisRate:0.00%    MPKI:0.00
PC:18cd4     Total:27884      MisBP:0   MisRate:0.00%    MPKI:0.00
PC:16516     Total:14628      MisBP:0   MisRate:0.00%    MPKI:0.00
PC:18cd2     Total:27926      MisBP:0   MisRate:0.00%    MPKI:0.00
PC:16514     Total:14609      MisBP:0   MisRate:0.00%    MPKI:0.00
PC:16512     Total:14609      MisBP:0   MisRate:0.00%    MPKI:0.00
PC:18cce     Total:25646      MisBP:0   MisRate:0.00%    MPKI:0.00
PC:16510     Total:14631      MisBP:0   MisRate:0.00%    MPKI:0.00
PC:1650e     Total:14631      MisBP:0   MisRate:0.00%    MPKI:0.00
PC:18cca     Total:25701      MisBP:0   MisRate:0.00%    MPKI:0.00
PC:1650c     Total:14631      MisBP:0   MisRate:0.00%    MPKI:0.00
PC:18cf6     Total:27036      MisBP:0   MisRate:0.00%    MPKI:0.00
PC:3971e     Total:3      MisBP:0   MisRate:0.00%    MPKI:0.00
PC:1654c     Total:14567      MisBP:0   MisRate:0.00%    MPKI:0.00
PC:3971a     Total:3      MisBP:0   MisRate:0.00%    MPKI:0.00
PC:16548     Total:14567      MisBP:0   MisRate:0.00%    MPKI:0.00
PC:39716     Total:3      MisBP:0   MisRate:0.00%    MPKI:0.00
PC:18d02     Total:7204      MisBP:0   MisRate:0.00%    MPKI:0.00
PC:16544     Total:14567      MisBP:0   MisRate:0.00%    MPKI:0.00
PC:16540     Total:14567      MisBP:0   MisRate:0.00%    MPKI:0.00
PC:18cfa     Total:26585      MisBP:0   MisRate:0.00%    MPKI:0.00
PC:1653c     Total:14607      MisBP:0   MisRate:0.00%    MPKI:0.00
PC:3970a     Total:3      MisBP:0   MisRate:0.00%    MPKI:0.00
PC:12db8     Total:1187      MisBP:0   MisRate:0.00%    MPKI:0.00
PC:16538     Total:14607      MisBP:0   MisRate:0.00%    MPKI:0.00
PC:39706     Total:3      MisBP:0   MisRate:0.00%    MPKI:0.00
PC:18cf4     Total:27189      MisBP:0   MisRate:0.00%    MPKI:0.00
PC:16536     Total:14663      MisBP:0   MisRate:0.00%    MPKI:0.00
PC:18cf0     Total:27356      MisBP:0   MisRate:0.00%    MPKI:0.00
PC:16532     Total:14663      MisBP:0   MisRate:0.00%    MPKI:0.00
PC:39700     Total:3      MisBP:0   MisRate:0.00%    MPKI:0.00
PC:18cee     Total:27465      MisBP:0   MisRate:0.00%    MPKI:0.00
PC:16530     Total:14664      MisBP:0   MisRate:0.00%    MPKI:0.00
PC:1652e     Total:14665      MisBP:0   MisRate:0.00%    MPKI:0.00
PC:2939c     Total:22      MisBP:0   MisRate:0.00%    MPKI:0.00
PC:152a4     Total:12      MisBP:0   MisRate:0.00%    MPKI:0.00
PC:155bc     Total:14359      MisBP:0   MisRate:0.00%    MPKI:0.00
PC:296c4     Total:107      MisBP:0   MisRate:0.00%    MPKI:0.00
PC:155ba     Total:14359      MisBP:0   MisRate:0.00%    MPKI:0.00
PC:293a8     Total:44      MisBP:0   MisRate:0.00%    MPKI:0.00
PC:152a0     Total:12      MisBP:0   MisRate:0.00%    MPKI:0.00
PC:155b8     Total:14359      MisBP:0   MisRate:0.00%    MPKI:0.00
PC:296c0     Total:107      MisBP:0   MisRate:0.00%    MPKI:0.00
PC:155b6     Total:14359      MisBP:0   MisRate:0.00%    MPKI:0.00
PC:155b2     Total:14354      MisBP:0   MisRate:0.00%    MPKI:0.00
PC:155ae     Total:14354      MisBP:0   MisRate:0.00%    MPKI:0.00
PC:293ac     Total:22      MisBP:0   MisRate:0.00%    MPKI:0.00
PC:15294     Total:13      MisBP:0   MisRate:0.00%    MPKI:0.00
PC:155ac     Total:14354      MisBP:0   MisRate:0.00%    MPKI:0.00
PC:296b4     Total:107      MisBP:0   MisRate:0.00%    MPKI:0.00
PC:155aa     Total:14356      MisBP:0   MisRate:0.00%    MPKI:0.00
PC:29398     Total:44      MisBP:0   MisRate:0.00%    MPKI:0.00
PC:15290     Total:175      MisBP:0   MisRate:0.00%    MPKI:0.00
PC:155a8     Total:14356      MisBP:0   MisRate:0.00%    MPKI:0.00
PC:296b0     Total:107      MisBP:0   MisRate:0.00%    MPKI:0.00
PC:155a6     Total:14356      MisBP:0   MisRate:0.00%    MPKI:0.00
PC:29394     Total:44      MisBP:0   MisRate:0.00%    MPKI:0.00
PC:155c8     Total:14389      MisBP:0   MisRate:0.00%    MPKI:0.00
PC:12e10     Total:14203      MisBP:0   MisRate:0.00%    MPKI:0.00
PC:155ce     Total:14389      MisBP:0   MisRate:0.00%    MPKI:0.00
PC:12e0e     Total:14316      MisBP:0   MisRate:0.00%    MPKI:0.00
PC:293bc     Total:129      MisBP:0   MisRate:0.00%    MPKI:0.00
PC:155cc     Total:14389      MisBP:0   MisRate:0.00%    MPKI:0.00
PC:296d4     Total:107      MisBP:0   MisRate:0.00%    MPKI:0.00
PC:12e0c     Total:14316      MisBP:0   MisRate:0.00%    MPKI:0.00
PC:155ca     Total:14389      MisBP:0   MisRate:0.00%    MPKI:0.00
PC:12e0a     Total:14316      MisBP:0   MisRate:0.00%    MPKI:0.00
PC:293b8     Total:129      MisBP:0   MisRate:0.00%    MPKI:0.00
PC:152b0     Total:5      MisBP:0   MisRate:0.00%    MPKI:0.00
PC:1528c     Total:175      MisBP:0   MisRate:0.00%    MPKI:0.00
PC:296d0     Total:107      MisBP:0   MisRate:0.00%    MPKI:0.00
PC:12e06     Total:14298      MisBP:0   MisRate:0.00%    MPKI:0.00
PC:293b4     Total:258      MisBP:0   MisRate:0.00%    MPKI:0.00
PC:152ac     Total:5      MisBP:0   MisRate:0.00%    MPKI:0.00
PC:155c4     Total:14358      MisBP:0   MisRate:0.00%    MPKI:0.00
PC:296cc     Total:107      MisBP:0   MisRate:0.00%    MPKI:0.00
PC:293b0     Total:22      MisBP:0   MisRate:0.00%    MPKI:0.00
PC:155c0     Total:14358      MisBP:0   MisRate:0.00%    MPKI:0.00
PC:296c8     Total:107      MisBP:0   MisRate:0.00%    MPKI:0.00
PC:155be     Total:14359      MisBP:0   MisRate:0.00%    MPKI:0.00
PC:2936c     Total:6      MisBP:0   MisRate:0.00%    MPKI:0.00
PC:29378     Total:8      MisBP:0   MisRate:0.00%    MPKI:0.00
PC:15270     Total:8      MisBP:0   MisRate:0.00%    MPKI:0.00
PC:15588     Total:14330      MisBP:0   MisRate:0.00%    MPKI:0.00
PC:29690     Total:107      MisBP:0   MisRate:0.00%    MPKI:0.00
PC:29374     Total:6      MisBP:0   MisRate:0.00%    MPKI:0.00
PC:15584     Total:14330      MisBP:0   MisRate:0.00%    MPKI:0.00
PC:2968c     Total:107      MisBP:0   MisRate:0.00%    MPKI:0.00
PC:29370     Total:6      MisBP:0   MisRate:0.00%    MPKI:0.00
PC:15580     Total:14330      MisBP:0   MisRate:0.00%    MPKI:0.00
PC:29688     Total:107      MisBP:0   MisRate:0.00%    MPKI:0.00
PC:12dbe     Total:1205      MisBP:0   MisRate:0.00%    MPKI:0.00
PC:1558a     Total:14330      MisBP:0   MisRate:0.00%    MPKI:0.00
PC:15264     Total:8      MisBP:0   MisRate:0.00%    MPKI:0.00
PC:1557c     Total:14332      MisBP:0   MisRate:0.00%    MPKI:0.00
PC:29684     Total:107      MisBP:0   MisRate:0.00%    MPKI:0.00
PC:12dbc     Total:1205      MisBP:0   MisRate:0.00%    MPKI:0.00
PC:1557a     Total:14332      MisBP:0   MisRate:0.00%    MPKI:0.00
PC:12dba     Total:1187      MisBP:0   MisRate:0.00%    MPKI:0.00
PC:29368     Total:6      MisBP:0   MisRate:0.00%    MPKI:0.00
PC:15260     Total:7      MisBP:0   MisRate:0.00%    MPKI:0.00
PC:15578     Total:14332      MisBP:0   MisRate:0.00%    MPKI:0.00
PC:29680     Total:107      MisBP:0   MisRate:0.00%    MPKI:0.00
PC:1559a     Total:14330      MisBP:0   MisRate:0.00%    MPKI:0.00
PC:155a4     Total:14356      MisBP:0   MisRate:0.00%    MPKI:0.00
PC:296ac     Total:107      MisBP:0   MisRate:0.00%    MPKI:0.00
PC:29390     Total:22      MisBP:0   MisRate:0.00%    MPKI:0.00
PC:15288     Total:350      MisBP:0   MisRate:0.00%    MPKI:0.00
PC:155a0     Total:14330      MisBP:0   MisRate:0.00%    MPKI:0.00
PC:296a8     Total:107      MisBP:0   MisRate:0.00%    MPKI:0.00
PC:2938c     Total:6      MisBP:0   MisRate:0.00%    MPKI:0.00
PC:15284     Total:168      MisBP:0   MisRate:0.00%    MPKI:0.00
PC:1559c     Total:14330      MisBP:0   MisRate:0.00%    MPKI:0.00
PC:296a4     Total:107      MisBP:0   MisRate:0.00%    MPKI:0.00
PC:18cc8     Total:25788      MisBP:0   MisRate:0.00%    MPKI:0.00
PC:29388     Total:6      MisBP:0   MisRate:0.00%    MPKI:0.00
PC:15598     Total:14330      MisBP:0   MisRate:0.00%    MPKI:0.00
PC:296a0     Total:107      MisBP:0   MisRate:0.00%    MPKI:0.00
PC:15596     Total:14330      MisBP:0   MisRate:0.00%    MPKI:0.00
PC:29384     Total:6      MisBP:0   MisRate:0.00%    MPKI:0.00
PC:1527c     Total:8      MisBP:0   MisRate:0.00%    MPKI:0.00
PC:15594     Total:14330      MisBP:0   MisRate:0.00%    MPKI:0.00
PC:2969c     Total:107      MisBP:0   MisRate:0.00%    MPKI:0.00
PC:15592     Total:14330      MisBP:0   MisRate:0.00%    MPKI:0.00
PC:1558e     Total:14330      MisBP:0   MisRate:0.00%    MPKI:0.00
PC:18c28     Total:7794      MisBP:0   MisRate:0.00%    MPKI:0.00
PC:1647a     Total:14629      MisBP:0   MisRate:0.00%    MPKI:0.00
PC:18c36     Total:7590      MisBP:0   MisRate:0.00%    MPKI:0.00
PC:16478     Total:14633      MisBP:0   MisRate:0.00%    MPKI:0.00
PC:16476     Total:14638      MisBP:0   MisRate:0.00%    MPKI:0.00
PC:18c32     Total:7616      MisBP:0   MisRate:0.00%    MPKI:0.00
PC:16474     Total:14607      MisBP:0   MisRate:0.00%    MPKI:0.00
PC:16472     Total:14607      MisBP:0   MisRate:0.00%    MPKI:0.00
PC:16470     Total:14615      MisBP:0   MisRate:0.00%    MPKI:0.00
PC:18c2c     Total:7748      MisBP:0   MisRate:0.00%    MPKI:0.00
PC:1646e     Total:14615      MisBP:0   MisRate:0.00%    MPKI:0.00
PC:1646c     Total:14615      MisBP:0   MisRate:0.00%    MPKI:0.00
PC:18c38     Total:7583      MisBP:0   MisRate:0.00%    MPKI:0.00
PC:1646a     Total:14616      MisBP:0   MisRate:0.00%    MPKI:0.00
PC:18c24     Total:7802      MisBP:0   MisRate:0.00%    MPKI:0.00
PC:16466     Total:14616      MisBP:0   MisRate:0.00%    MPKI:0.00
PC:16464     Total:14624      MisBP:0   MisRate:0.00%    MPKI:0.00
PC:18c20     Total:15604      MisBP:0   MisRate:0.00%    MPKI:0.00
PC:16462     Total:14624      MisBP:0   MisRate:0.00%    MPKI:0.00
PC:18c1e     Total:7796      MisBP:0   MisRate:0.00%    MPKI:0.00
PC:16460     Total:14630      MisBP:0   MisRate:0.00%    MPKI:0.00
PC:18c1c     Total:7798      MisBP:0   MisRate:0.00%    MPKI:0.00
PC:1645e     Total:14644      MisBP:0   MisRate:0.00%    MPKI:0.00
PC:1648a     Total:14588      MisBP:0   MisRate:0.00%    MPKI:0.00
PC:18c54     Total:26474      MisBP:0   MisRate:0.00%    MPKI:0.00
PC:16496     Total:14628      MisBP:0   MisRate:0.00%    MPKI:0.00
PC:18c52     Total:26477      MisBP:0   MisRate:0.00%    MPKI:0.00
PC:16494     Total:14628      MisBP:0   MisRate:0.00%    MPKI:0.00
PC:18c50     Total:26492      MisBP:0   MisRate:0.00%    MPKI:0.00
PC:16492     Total:14649      MisBP:0   MisRate:0.00%    MPKI:0.00
PC:16490     Total:14649      MisBP:0   MisRate:0.00%    MPKI:0.00
PC:18c4c     Total:263      MisBP:0   MisRate:0.00%    MPKI:0.00
PC:1648e     Total:14611      MisBP:0   MisRate:0.00%    MPKI:0.00
PC:1648c     Total:14611      MisBP:0   MisRate:0.00%    MPKI:0.00
PC:18c48     Total:263      MisBP:0   MisRate:0.00%    MPKI:0.00
PC:18c1a     Total:7798      MisBP:0   MisRate:0.00%    MPKI:0.00
PC:18c44     Total:263      MisBP:0   MisRate:0.00%    MPKI:0.00
PC:16486     Total:14588      MisBP:0   MisRate:0.00%    MPKI:0.00
PC:18c40     Total:263      MisBP:0   MisRate:0.00%    MPKI:0.00
PC:16482     Total:14588      MisBP:0   MisRate:0.00%    MPKI:0.00
PC:18c3e     Total:276      MisBP:0   MisRate:0.00%    MPKI:0.00
PC:16480     Total:14588      MisBP:0   MisRate:0.00%    MPKI:0.00
PC:18c3c     Total:7553      MisBP:0   MisRate:0.00%    MPKI:0.00
PC:1647e     Total:14645      MisBP:0   MisRate:0.00%    MPKI:0.00
PC:18c3a     Total:7562      MisBP:0   MisRate:0.00%    MPKI:0.00
PC:1647c     Total:14625      MisBP:0   MisRate:0.00%    MPKI:0.00
PC:1642c     Total:14750      MisBP:0   MisRate:0.00%    MPKI:0.00
PC:18bfc     Total:60      MisBP:0   MisRate:0.00%    MPKI:0.00
PC:1643e     Total:14783      MisBP:0   MisRate:0.00%    MPKI:0.00
PC:1643a     Total:14763      MisBP:0   MisRate:0.00%    MPKI:0.00
PC:18bf6     Total:7851      MisBP:0   MisRate:0.00%    MPKI:0.00
PC:16438     Total:14766      MisBP:0   MisRate:0.00%    MPKI:0.00
PC:18bf4     Total:7867      MisBP:0   MisRate:0.00%    MPKI:0.00
PC:16436     Total:14773      MisBP:0   MisRate:0.00%    MPKI:0.00
PC:16434     Total:14749      MisBP:0   MisRate:0.00%    MPKI:0.00
PC:16432     Total:14754      MisBP:0   MisRate:0.00%    MPKI:0.00
PC:16430     Total:14750      MisBP:0   MisRate:0.00%    MPKI:0.00
PC:1642e     Total:14750      MisBP:0   MisRate:0.00%    MPKI:0.00
PC:16440     Total:14729      MisBP:0   MisRate:0.00%    MPKI:0.00
PC:1642a     Total:14753      MisBP:0   MisRate:0.00%    MPKI:0.00
PC:16426     Total:14753      MisBP:0   MisRate:0.00%    MPKI:0.00
PC:16424     Total:14754      MisBP:0   MisRate:0.00%    MPKI:0.00
PC:16422     Total:14755      MisBP:0   MisRate:0.00%    MPKI:0.00
PC:16420     Total:14767      MisBP:0   MisRate:0.00%    MPKI:0.00
PC:18bdc     Total:41333      MisBP:0   MisRate:0.00%    MPKI:0.00
PC:1641e     Total:14767      MisBP:0   MisRate:0.00%    MPKI:0.00
PC:1641c     Total:14767      MisBP:0   MisRate:0.00%    MPKI:0.00
PC:18bd8     Total:41593      MisBP:0   MisRate:0.00%    MPKI:0.00
PC:1641a     Total:14719      MisBP:0   MisRate:0.00%    MPKI:0.00
PC:1644e     Total:14709      MisBP:0   MisRate:0.00%    MPKI:0.00
PC:1645c     Total:14647      MisBP:0   MisRate:0.00%    MPKI:0.00
PC:18c18     Total:52      MisBP:0   MisRate:0.00%    MPKI:0.00
PC:1645a     Total:14650      MisBP:0   MisRate:0.00%    MPKI:0.00
PC:18c14     Total:52      MisBP:0   MisRate:0.00%    MPKI:0.00
PC:16456     Total:14656      MisBP:0   MisRate:0.00%    MPKI:0.00
PC:18c12     Total:52      MisBP:0   MisRate:0.00%    MPKI:0.00
PC:16454     Total:14658      MisBP:0   MisRate:0.00%    MPKI:0.00
PC:18c10     Total:52      MisBP:0   MisRate:0.00%    MPKI:0.00
PC:16452     Total:14711      MisBP:0   MisRate:0.00%    MPKI:0.00
PC:18c0c     Total:53      MisBP:0   MisRate:0.00%    MPKI:0.00
PC:16498     Total:14632      MisBP:0   MisRate:0.00%    MPKI:0.00
PC:18c0a     Total:53      MisBP:0   MisRate:0.00%    MPKI:0.00
PC:1644c     Total:14709      MisBP:0   MisRate:0.00%    MPKI:0.00
PC:18c08     Total:53      MisBP:0   MisRate:0.00%    MPKI:0.00
PC:1644a     Total:14716      MisBP:0   MisRate:0.00%    MPKI:0.00
PC:18c06     Total:53      MisBP:0   MisRate:0.00%    MPKI:0.00
PC:16448     Total:14719      MisBP:0   MisRate:0.00%    MPKI:0.00
PC:18c04     Total:53      MisBP:0   MisRate:0.00%    MPKI:0.00
PC:16446     Total:14724      MisBP:0   MisRate:0.00%    MPKI:0.00
PC:16442     Total:14727      MisBP:0   MisRate:0.00%    MPKI:0.00
PC:18bfe     Total:53      MisBP:0   MisRate:0.00%    MPKI:0.00
PC:18ca8     Total:6235      MisBP:0   MisRate:0.00%    MPKI:0.00
PC:18cb0     Total:6221      MisBP:0   MisRate:0.00%    MPKI:0.00
PC:164f2     Total:14625      MisBP:0   MisRate:0.00%    MPKI:0.00
PC:1dc2a     Total:2      MisBP:0   MisRate:0.00%    MPKI:0.00
PC:18cae     Total:6222      MisBP:0   MisRate:0.00%    MPKI:0.00
PC:164f0     Total:14625      MisBP:0   MisRate:0.00%    MPKI:0.00
PC:18cac     Total:6227      MisBP:0   MisRate:0.00%    MPKI:0.00
PC:164ee     Total:14627      MisBP:0   MisRate:0.00%    MPKI:0.00
PC:1dc26     Total:16      MisBP:0   MisRate:0.00%    MPKI:0.00
PC:164ec     Total:14628      MisBP:0   MisRate:0.00%    MPKI:0.00
PC:1dc24     Total:19      MisBP:0   MisRate:0.00%    MPKI:0.00
PC:18be2     Total:40988      MisBP:0   MisRate:0.00%    MPKI:0.00
PC:18bea     Total:40940      MisBP:0   MisRate:0.00%    MPKI:0.00
PC:164ea     Total:14630      MisBP:0   MisRate:0.00%    MPKI:0.00
PC:1dc22     Total:19      MisBP:0   MisRate:0.00%    MPKI:0.00
PC:18be0     Total:41066      MisBP:0   MisRate:0.00%    MPKI:0.00
PC:164e8     Total:14630      MisBP:0   MisRate:0.00%    MPKI:0.00
PC:164e4     Total:14629      MisBP:0   MisRate:0.00%    MPKI:0.00
PC:1dc1c     Total:38      MisBP:0   MisRate:0.00%    MPKI:0.00
PC:18bda     Total:41364      MisBP:0   MisRate:0.00%    MPKI:0.00
PC:18ca0     Total:6281      MisBP:0   MisRate:0.00%    MPKI:0.00
PC:164e2     Total:14636      MisBP:0   MisRate:0.00%    MPKI:0.00
PC:164de     Total:14636      MisBP:0   MisRate:0.00%    MPKI:0.00
PC:1dc32     Total:2      MisBP:0   MisRate:0.00%    MPKI:0.00
PC:1650a     Total:14633      MisBP:0   MisRate:0.00%    MPKI:0.00
PC:18cc6     Total:25859      MisBP:0   MisRate:0.00%    MPKI:0.00
PC:16508     Total:14635      MisBP:0   MisRate:0.00%    MPKI:0.00
PC:18cc2     Total:227      MisBP:0   MisRate:0.00%    MPKI:0.00
PC:16504     Total:14613      MisBP:0   MisRate:0.00%    MPKI:0.00
PC:16502     Total:14613      MisBP:0   MisRate:0.00%    MPKI:0.00
PC:18cbe     Total:227      MisBP:0   MisRate:0.00%    MPKI:0.00
PC:16500     Total:14613      MisBP:0   MisRate:0.00%    MPKI:0.00
PC:18cba     Total:229      MisBP:0   MisRate:0.00%    MPKI:0.00
PC:164fc     Total:14652      MisBP:0   MisRate:0.00%    MPKI:0.00
PC:164fa     Total:14654      MisBP:0   MisRate:0.00%    MPKI:0.00
PC:1dc16     Total:21      MisBP:0   MisRate:0.00%    MPKI:0.00
PC:18bf0     Total:7884      MisBP:0   MisRate:0.00%    MPKI:0.00
PC:18cb6     Total:229      MisBP:0   MisRate:0.00%    MPKI:0.00
PC:164f8     Total:14654      MisBP:0   MisRate:0.00%    MPKI:0.00
PC:1dc30     Total:2      MisBP:0   MisRate:0.00%    MPKI:0.00
PC:18bee     Total:7908      MisBP:0   MisRate:0.00%    MPKI:0.00
PC:18cb4     Total:229      MisBP:0   MisRate:0.00%    MPKI:0.00
PC:164f6     Total:14642      MisBP:0   MisRate:0.00%    MPKI:0.00
PC:18cb2     Total:6218      MisBP:0   MisRate:0.00%    MPKI:0.00
PC:164f4     Total:14625      MisBP:0   MisRate:0.00%    MPKI:0.00
PC:1dc2c     Total:4      MisBP:0   MisRate:0.00%    MPKI:0.00
PC:18c66     Total:30586      MisBP:0   MisRate:0.00%    MPKI:0.00
PC:164c8     Total:14676      MisBP:0   MisRate:0.00%    MPKI:0.00
PC:18c84     Total:28547      MisBP:0   MisRate:0.00%    MPKI:0.00
PC:164c6     Total:14616      MisBP:0   MisRate:0.00%    MPKI:0.00
PC:18c82     Total:28550      MisBP:0   MisRate:0.00%    MPKI:0.00
PC:164c4     Total:14616      MisBP:0   MisRate:0.00%    MPKI:0.00
PC:18c7a     Total:30434      MisBP:0   MisRate:0.00%    MPKI:0.00
PC:164bc     Total:14644      MisBP:0   MisRate:0.00%    MPKI:0.00
PC:164b0     Total:14644      MisBP:0   MisRate:0.00%    MPKI:0.00
PC:18c6c     Total:30583      MisBP:0   MisRate:0.00%    MPKI:0.00
PC:164ae     Total:14644      MisBP:0   MisRate:0.00%    MPKI:0.00
PC:164ac     Total:14645      MisBP:0   MisRate:0.00%    MPKI:0.00
PC:164ca     Total:14673      MisBP:0   MisRate:0.00%    MPKI:0.00
PC:164a8     Total:14645      MisBP:0   MisRate:0.00%    MPKI:0.00
PC:18c64     Total:30589      MisBP:0   MisRate:0.00%    MPKI:0.00
PC:164a6     Total:14672      MisBP:0   MisRate:0.00%    MPKI:0.00
PC:164a2     Total:14673      MisBP:0   MisRate:0.00%    MPKI:0.00
PC:18c5e     Total:31160      MisBP:0   MisRate:0.00%    MPKI:0.00
PC:164a0     Total:14673      MisBP:0   MisRate:0.00%    MPKI:0.00
PC:18c5c     Total:31204      MisBP:0   MisRate:0.00%    MPKI:0.00
PC:1649e     Total:14671      MisBP:0   MisRate:0.00%    MPKI:0.00
PC:18c58     Total:26464      MisBP:0   MisRate:0.00%    MPKI:0.00
PC:1649a     Total:14632      MisBP:0   MisRate:0.00%    MPKI:0.00
PC:164d6     Total:14632      MisBP:0   MisRate:0.00%    MPKI:0.00
PC:18bd4     Total:7360      MisBP:0   MisRate:0.00%    MPKI:0.00
PC:18c9a     Total:12677      MisBP:0   MisRate:0.00%    MPKI:0.00
PC:164dc     Total:14636      MisBP:0   MisRate:0.00%    MPKI:0.00
PC:1dc14     Total:21      MisBP:0   MisRate:0.00%    MPKI:0.00
PC:18bd2     Total:7480      MisBP:0   MisRate:0.00%    MPKI:0.00
PC:164da     Total:14636      MisBP:0   MisRate:0.00%    MPKI:0.00
PC:1dc12     Total:42      MisBP:0   MisRate:0.00%    MPKI:0.00
PC:18c96     Total:6339      MisBP:0   MisRate:0.00%    MPKI:0.00
PC:164d8     Total:14632      MisBP:0   MisRate:0.00%    MPKI:0.00
PC:18c94     Total:6337      MisBP:0   MisRate:0.00%    MPKI:0.00
PC:16128     Total:14540      MisBP:0   MisRate:0.00%    MPKI:0.00
PC:1dc0e     Total:21      MisBP:0   MisRate:0.00%    MPKI:0.00
PC:18bcc     Total:7671      MisBP:0   MisRate:0.00%    MPKI:0.00
PC:164d4     Total:14635      MisBP:0   MisRate:0.00%    MPKI:0.00
PC:1dc0c     Total:105      MisBP:0   MisRate:0.00%    MPKI:0.00
PC:18c90     Total:6341      MisBP:0   MisRate:0.00%    MPKI:0.00
PC:164d2     Total:14635      MisBP:0   MisRate:0.00%    MPKI:0.00
PC:18c8e     Total:6347      MisBP:0   MisRate:0.00%    MPKI:0.00
PC:164d0     Total:14673      MisBP:0   MisRate:0.00%    MPKI:0.00
PC:18c8a     Total:6317      MisBP:0   MisRate:0.00%    MPKI:0.00
PC:164cc     Total:14673      MisBP:0   MisRate:0.00%    MPKI:0.00
PC:1598a     Total:14343      MisBP:0   MisRate:0.00%    MPKI:0.00
PC:29298     Total:5      MisBP:0   MisRate:0.00%    MPKI:0.00
PC:15190     Total:5      MisBP:0   MisRate:0.00%    MPKI:0.00
PC:1598e     Total:14343      MisBP:0   MisRate:0.00%    MPKI:0.00
PC:154a6     Total:7      MisBP:0   MisRate:0.00%    MPKI:0.00
PC:29296     Total:5      MisBP:0   MisRate:0.00%    MPKI:0.00
PC:1224e     Total:256424      MisBP:0   MisRate:0.00%    MPKI:0.00
PC:154a4     Total:7      MisBP:0   MisRate:0.00%    MPKI:0.00
PC:295ac     Total:1431      MisBP:0   MisRate:0.00%    MPKI:0.00
PC:29294     Total:5      MisBP:0   MisRate:0.00%    MPKI:0.00
PC:1518c     Total:5      MisBP:0   MisRate:0.00%    MPKI:0.00
PC:1224c     Total:257911      MisBP:0   MisRate:0.00%    MPKI:0.00
PC:295b0     Total:1430      MisBP:0   MisRate:0.00%    MPKI:0.00
PC:154a0     Total:7      MisBP:0   MisRate:0.00%    MPKI:0.00
PC:295a8     Total:1431      MisBP:0   MisRate:0.00%    MPKI:0.00
PC:29290     Total:5      MisBP:0   MisRate:0.00%    MPKI:0.00
PC:15188     Total:5      MisBP:0   MisRate:0.00%    MPKI:0.00
PC:1549c     Total:7      MisBP:0   MisRate:0.00%    MPKI:0.00
PC:295a4     Total:1431      MisBP:0   MisRate:0.00%    MPKI:0.00
PC:2928c     Total:5      MisBP:0   MisRate:0.00%    MPKI:0.00
PC:15982     Total:14343      MisBP:0   MisRate:0.00%    MPKI:0.00
PC:295a0     Total:1431      MisBP:0   MisRate:0.00%    MPKI:0.00
PC:29288     Total:5      MisBP:0   MisRate:0.00%    MPKI:0.00
PC:154b0     Total:7      MisBP:0   MisRate:0.00%    MPKI:0.00
PC:190dc     Total:1      MisBP:0   MisRate:0.00%    MPKI:0.00
PC:1409a     Total:102      MisBP:0   MisRate:0.00%    MPKI:0.00
PC:1599e     Total:14342      MisBP:0   MisRate:0.00%    MPKI:0.00
PC:292a6     Total:5      MisBP:0   MisRate:0.00%    MPKI:0.00
PC:1519e     Total:5      MisBP:0   MisRate:0.00%    MPKI:0.00
PC:1015c     Total:24      MisBP:0   MisRate:0.00%    MPKI:0.00
PC:1225e     Total:45162      MisBP:0   MisRate:0.00%    MPKI:0.00
PC:292a2     Total:5      MisBP:0   MisRate:0.00%    MPKI:0.00
PC:1519a     Total:5      MisBP:0   MisRate:0.00%    MPKI:0.00
PC:1225a     Total:45061      MisBP:0   MisRate:0.00%    MPKI:0.00
PC:15998     Total:14342      MisBP:0   MisRate:0.00%    MPKI:0.00
PC:15180     Total:5      MisBP:0   MisRate:0.00%    MPKI:0.00
PC:295b8     Total:1430      MisBP:0   MisRate:0.00%    MPKI:0.00
PC:292a0     Total:5      MisBP:0   MisRate:0.00%    MPKI:0.00
PC:15198     Total:5      MisBP:0   MisRate:0.00%    MPKI:0.00
PC:2929e     Total:5      MisBP:0   MisRate:0.00%    MPKI:0.00
PC:10154     Total:148      MisBP:0   MisRate:0.00%    MPKI:0.00
PC:12256     Total:45804      MisBP:0   MisRate:0.00%    MPKI:0.00
PC:15994     Total:14343      MisBP:0   MisRate:0.00%    MPKI:0.00
PC:12252     Total:45806      MisBP:0   MisRate:0.00%    MPKI:0.00
PC:15990     Total:14343      MisBP:0   MisRate:0.00%    MPKI:0.00
PC:154a8     Total:7      MisBP:0   MisRate:0.00%    MPKI:0.00
PC:15d06     Total:14574      MisBP:0   MisRate:0.00%    MPKI:0.00
PC:125d4     Total:3      MisBP:0   MisRate:0.00%    MPKI:0.00
PC:14d90     Total:7632      MisBP:0   MisRate:0.00%    MPKI:0.00
PC:125d2     Total:3      MisBP:0   MisRate:0.00%    MPKI:0.00
PC:125d0     Total:3      MisBP:0   MisRate:0.00%    MPKI:0.00
PC:15d0e     Total:14573      MisBP:0   MisRate:0.00%    MPKI:0.00
PC:14d8c     Total:7632      MisBP:0   MisRate:0.00%    MPKI:0.00
PC:125ce     Total:3      MisBP:0   MisRate:0.00%    MPKI:0.00
PC:14d8a     Total:7634      MisBP:0   MisRate:0.00%    MPKI:0.00
PC:125cc     Total:3      MisBP:0   MisRate:0.00%    MPKI:0.00
PC:14aa0     Total:12      MisBP:0   MisRate:0.00%    MPKI:0.00
PC:125c8     Total:3      MisBP:0   MisRate:0.00%    MPKI:0.00
PC:14d92     Total:7632      MisBP:0   MisRate:0.00%    MPKI:0.00
PC:14cf8     Total:7890      MisBP:0   MisRate:0.00%    MPKI:0.00
PC:15c78     Total:14658      MisBP:0   MisRate:0.00%    MPKI:0.00
PC:14cf6     Total:7890      MisBP:0   MisRate:0.00%    MPKI:0.00
PC:12538     Total:2      MisBP:0   MisRate:0.00%    MPKI:0.00
PC:15c76     Total:14658      MisBP:0   MisRate:0.00%    MPKI:0.00
PC:14cf2     Total:7891      MisBP:0   MisRate:0.00%    MPKI:0.00
PC:12534     Total:2      MisBP:0   MisRate:0.00%    MPKI:0.00
PC:15c72     Total:14708      MisBP:0   MisRate:0.00%    MPKI:0.00
PC:14cf0     Total:7891      MisBP:0   MisRate:0.00%    MPKI:0.00
PC:12532     Total:2      MisBP:0   MisRate:0.00%    MPKI:0.00
PC:15d36     Total:14551      MisBP:0   MisRate:0.00%    MPKI:0.00
PC:1597e     Total:14343      MisBP:0   MisRate:0.00%    MPKI:0.00
PC:29284     Total:5      MisBP:0   MisRate:0.00%    MPKI:0.00
PC:1517c     Total:6      MisBP:0   MisRate:0.00%    MPKI:0.00
PC:1223c     Total:46673      MisBP:0   MisRate:0.00%    MPKI:0.00
PC:1597a     Total:14347      MisBP:0   MisRate:0.00%    MPKI:0.00
PC:29280     Total:5      MisBP:0   MisRate:0.00%    MPKI:0.00
PC:15178     Total:6      MisBP:0   MisRate:0.00%    MPKI:0.00
PC:12238     Total:46674      MisBP:0   MisRate:0.00%    MPKI:0.00
PC:15976     Total:14347      MisBP:0   MisRate:0.00%    MPKI:0.00
PC:14db6     Total:7793      MisBP:0   MisRate:0.00%    MPKI:0.00
PC:125f8     Total:5      MisBP:0   MisRate:0.00%    MPKI:0.00
PC:12260     Total:44598      MisBP:0   MisRate:0.00%    MPKI:0.00
PC:125ec     Total:535792      MisBP:0   MisRate:0.00%    MPKI:0.00
PC:14da6     Total:7849      MisBP:0   MisRate:0.00%    MPKI:0.00
PC:125e8     Total:2      MisBP:0   MisRate:0.00%    MPKI:0.00
PC:125e4     Total:3      MisBP:0   MisRate:0.00%    MPKI:0.00
PC:14d9e     Total:7695      MisBP:0   MisRate:0.00%    MPKI:0.00
PC:125e0     Total:3      MisBP:0   MisRate:0.00%    MPKI:0.00
PC:14d98     Total:7695      MisBP:0   MisRate:0.00%    MPKI:0.00
PC:125da     Total:3      MisBP:0   MisRate:0.00%    MPKI:0.00
PC:125d6     Total:3      MisBP:0   MisRate:0.00%    MPKI:0.00
PC:14aaa     Total:2      MisBP:0   MisRate:0.00%    MPKI:0.00
PC:151be     Total:3      MisBP:0   MisRate:0.00%    MPKI:0.00
PC:154e0     Total:11      MisBP:0   MisRate:0.00%    MPKI:0.00
PC:295e8     Total:1429      MisBP:0   MisRate:0.00%    MPKI:0.00
PC:292d0     Total:4      MisBP:0   MisRate:0.00%    MPKI:0.00
PC:151c8     Total:1      MisBP:0   MisRate:0.00%    MPKI:0.00
PC:14a46     Total:193831      MisBP:0   MisRate:0.00%    MPKI:0.00
PC:12288     Total:87563      MisBP:0   MisRate:0.00%    MPKI:0.00
PC:159c6     Total:14396      MisBP:0   MisRate:0.00%    MPKI:0.00
PC:154da     Total:11      MisBP:0   MisRate:0.00%    MPKI:0.00
PC:159c0     Total:14396      MisBP:0   MisRate:0.00%    MPKI:0.00
PC:154d6     Total:11      MisBP:0   MisRate:0.00%    MPKI:0.00
PC:292c6     Total:4      MisBP:0   MisRate:0.00%    MPKI:0.00
PC:159ca     Total:14417      MisBP:0   MisRate:0.00%    MPKI:0.00
PC:1017c     Total:24      MisBP:0   MisRate:0.00%    MPKI:0.00
PC:154d4     Total:9      MisBP:0   MisRate:0.00%    MPKI:0.00
PC:295dc     Total:1429      MisBP:0   MisRate:0.00%    MPKI:0.00
PC:292c4     Total:4      MisBP:0   MisRate:0.00%    MPKI:0.00
PC:14a3a     Total:204828      MisBP:0   MisRate:0.00%    MPKI:0.00
PC:159ba     Total:14405      MisBP:0   MisRate:0.00%    MPKI:0.00
PC:154d2     Total:9      MisBP:0   MisRate:0.00%    MPKI:0.00
PC:292c2     Total:4      MisBP:0   MisRate:0.00%    MPKI:0.00
PC:10178     Total:24      MisBP:0   MisRate:0.00%    MPKI:0.00
PC:151ba     Total:3      MisBP:0   MisRate:0.00%    MPKI:0.00
PC:14b36     Total:2      MisBP:0   MisRate:0.00%    MPKI:0.00
PC:15dc8     Total:14558      MisBP:0   MisRate:0.00%    MPKI:0.00
PC:15dc6     Total:14558      MisBP:0   MisRate:0.00%    MPKI:0.00
PC:15dc4     Total:14536      MisBP:0   MisRate:0.00%    MPKI:0.00
PC:15dc2     Total:14536      MisBP:0   MisRate:0.00%    MPKI:0.00
PC:15dbe     Total:14580      MisBP:0   MisRate:0.00%    MPKI:0.00
PC:15dbc     Total:14580      MisBP:0   MisRate:0.00%    MPKI:0.00
PC:14b50     Total:3      MisBP:0   MisRate:0.00%    MPKI:0.00
PC:15dba     Total:14580      MisBP:0   MisRate:0.00%    MPKI:0.00
PC:15db4     Total:14595      MisBP:0   MisRate:0.00%    MPKI:0.00
PC:14b46     Total:2      MisBP:0   MisRate:0.00%    MPKI:0.00
PC:15da4     Total:14549      MisBP:0   MisRate:0.00%    MPKI:0.00
PC:159b8     Total:14405      MisBP:0   MisRate:0.00%    MPKI:0.00
PC:14b14     Total:3      MisBP:0   MisRate:0.00%    MPKI:0.00
PC:14dfe     Total:7922      MisBP:0   MisRate:0.00%    MPKI:0.00
PC:15d7e     Total:14568      MisBP:0   MisRate:0.00%    MPKI:0.00
PC:1263e     Total:1      MisBP:0   MisRate:0.00%    MPKI:0.00
PC:14df6     Total:7903      MisBP:0   MisRate:0.00%    MPKI:0.00
PC:12638     Total:1      MisBP:0   MisRate:0.00%    MPKI:0.00
PC:154e4     Total:37      MisBP:0   MisRate:0.00%    MPKI:0.00
PC:295ec     Total:1429      MisBP:0   MisRate:0.00%    MPKI:0.00
PC:292d4     Total:3      MisBP:0   MisRate:0.00%    MPKI:0.00
PC:151cc     Total:1      MisBP:0   MisRate:0.00%    MPKI:0.00
PC:295c4     Total:1430      MisBP:0   MisRate:0.00%    MPKI:0.00
PC:140a6     Total:102      MisBP:0   MisRate:0.00%    MPKI:0.00
PC:159aa     Total:14385      MisBP:0   MisRate:0.00%    MPKI:0.00
PC:14a28     Total:383122      MisBP:0   MisRate:0.00%    MPKI:0.00
PC:1226a     Total:93855      MisBP:0   MisRate:0.00%    MPKI:0.00
PC:159a8     Total:14385      MisBP:0   MisRate:0.00%    MPKI:0.00
PC:292ae     Total:5      MisBP:0   MisRate:0.00%    MPKI:0.00
PC:151a6     Total:5      MisBP:0   MisRate:0.00%    MPKI:0.00
PC:10164     Total:24      MisBP:0   MisRate:0.00%    MPKI:0.00
PC:29794     Total:31      MisBP:0   MisRate:0.00%    MPKI:0.00
PC:159a4     Total:14342      MisBP:0   MisRate:0.00%    MPKI:0.00
PC:154bc     Total:87      MisBP:0   MisRate:0.00%    MPKI:0.00
PC:190e8     Total:3      MisBP:0   MisRate:0.00%    MPKI:0.00
PC:292ac     Total:5      MisBP:0   MisRate:0.00%    MPKI:0.00
PC:154ba     Total:87      MisBP:0   MisRate:0.00%    MPKI:0.00
PC:292aa     Total:5      MisBP:0   MisRate:0.00%    MPKI:0.00
PC:151a2     Total:5      MisBP:0   MisRate:0.00%    MPKI:0.00
PC:10160     Total:24      MisBP:0   MisRate:0.00%    MPKI:0.00
PC:29790     Total:31      MisBP:0   MisRate:0.00%    MPKI:0.00
PC:159a0     Total:14342      MisBP:0   MisRate:0.00%    MPKI:0.00
PC:154b8     Total:87      MisBP:0   MisRate:0.00%    MPKI:0.00
PC:295c0     Total:1430      MisBP:0   MisRate:0.00%    MPKI:0.00
PC:292a8     Total:5      MisBP:0   MisRate:0.00%    MPKI:0.00
PC:12276     Total:92712      MisBP:0   MisRate:0.00%    MPKI:0.00
PC:154d0     Total:9      MisBP:0   MisRate:0.00%    MPKI:0.00
PC:295d8     Total:1429      MisBP:0   MisRate:0.00%    MPKI:0.00
PC:292c0     Total:4      MisBP:0   MisRate:0.00%    MPKI:0.00
PC:14a36     Total:204884      MisBP:0   MisRate:0.00%    MPKI:0.00
PC:12278     Total:92654      MisBP:0   MisRate:0.00%    MPKI:0.00
PC:159b6     Total:14405      MisBP:0   MisRate:0.00%    MPKI:0.00
PC:154ce     Total:9      MisBP:0   MisRate:0.00%    MPKI:0.00
PC:292be     Total:4      MisBP:0   MisRate:0.00%    MPKI:0.00
PC:10174     Total:24      MisBP:0   MisRate:0.00%    MPKI:0.00
PC:151b6     Total:3      MisBP:0   MisRate:0.00%    MPKI:0.00
PC:14cee     Total:7892      MisBP:0   MisRate:0.00%    MPKI:0.00
PC:159b4     Total:14385      MisBP:0   MisRate:0.00%    MPKI:0.00
PC:154ca     Total:80      MisBP:0   MisRate:0.00%    MPKI:0.00
PC:159b0     Total:14385      MisBP:0   MisRate:0.00%    MPKI:0.00
PC:292b8     Total:5      MisBP:0   MisRate:0.00%    MPKI:0.00
PC:154c6     Total:80      MisBP:0   MisRate:0.00%    MPKI:0.00
PC:1226e     Total:187152      MisBP:0   MisRate:0.00%    MPKI:0.00
PC:159ac     Total:14385      MisBP:0   MisRate:0.00%    MPKI:0.00
PC:154c4     Total:80      MisBP:0   MisRate:0.00%    MPKI:0.00
PC:295cc     Total:1430      MisBP:0   MisRate:0.00%    MPKI:0.00
PC:292b4     Total:5      MisBP:0   MisRate:0.00%    MPKI:0.00
PC:12208     Total:380299      MisBP:0   MisRate:0.00%    MPKI:0.00
PC:12210     Total:380192      MisBP:0   MisRate:0.00%    MPKI:0.00
PC:15da0     Total:14549      MisBP:0   MisRate:0.00%    MPKI:0.00
PC:29256     Total:19      MisBP:0   MisRate:0.00%    MPKI:0.00
PC:1514e     Total:10      MisBP:0   MisRate:0.00%    MPKI:0.00
PC:1220e     Total:380267      MisBP:0   MisRate:0.00%    MPKI:0.00
PC:1594c     Total:14348      MisBP:0   MisRate:0.00%    MPKI:0.00
PC:36244     Total:29      MisBP:0   MisRate:0.00%    MPKI:0.00
PC:1220c     Total:380272      MisBP:0   MisRate:0.00%    MPKI:0.00
PC:15d9c     Total:14549      MisBP:0   MisRate:0.00%    MPKI:0.00
PC:1220a     Total:380281      MisBP:0   MisRate:0.00%    MPKI:0.00
PC:15948     Total:14348      MisBP:0   MisRate:0.00%    MPKI:0.00
PC:12214     Total:380187      MisBP:0   MisRate:0.00%    MPKI:0.00
PC:12228     Total:88      MisBP:0   MisRate:0.00%    MPKI:0.00
PC:15966     Total:14347      MisBP:0   MisRate:0.00%    MPKI:0.00
PC:12206     Total:380303      MisBP:0   MisRate:0.00%    MPKI:0.00
PC:15944     Total:14348      MisBP:0   MisRate:0.00%    MPKI:0.00
PC:3977a     Total:1      MisBP:0   MisRate:0.00%    MPKI:0.00
PC:121fe     Total:760619      MisBP:0   MisRate:0.00%    MPKI:0.00
PC:121fa     Total:484      MisBP:0   MisRate:0.00%    MPKI:0.00
PC:121f8     Total:486      MisBP:0   MisRate:0.00%    MPKI:0.00
PC:29240     Total:245      MisBP:0   MisRate:0.00%    MPKI:0.00
PC:121f6     Total:486      MisBP:0   MisRate:0.00%    MPKI:0.00
PC:15db0     Total:14595      MisBP:0   MisRate:0.00%    MPKI:0.00
PC:29274     Total:16      MisBP:0   MisRate:0.00%    MPKI:0.00
PC:1516c     Total:6      MisBP:0   MisRate:0.00%    MPKI:0.00
PC:1222c     Total:88      MisBP:0   MisRate:0.00%    MPKI:0.00
PC:1596a     Total:14347      MisBP:0   MisRate:0.00%    MPKI:0.00
PC:15482     Total:28668      MisBP:0   MisRate:0.00%    MPKI:0.00
PC:29272     Total:9      MisBP:0   MisRate:0.00%    MPKI:0.00
PC:1547e     Total:14334      MisBP:0   MisRate:0.00%    MPKI:0.00
PC:2926e     Total:10      MisBP:0   MisRate:0.00%    MPKI:0.00
PC:15166     Total:10      MisBP:0   MisRate:0.00%    MPKI:0.00
PC:15db2     Total:14595      MisBP:0   MisRate:0.00%    MPKI:0.00
PC:12220     Total:309      MisBP:0   MisRate:0.00%    MPKI:0.00
PC:121f4     Total:486      MisBP:0   MisRate:0.00%    MPKI:0.00
PC:1221e     Total:310      MisBP:0   MisRate:0.00%    MPKI:0.00
PC:29264     Total:13      MisBP:0   MisRate:0.00%    MPKI:0.00
PC:1515c     Total:10      MisBP:0   MisRate:0.00%    MPKI:0.00
PC:1221a     Total:380179      MisBP:0   MisRate:0.00%    MPKI:0.00
PC:15958     Total:14348      MisBP:0   MisRate:0.00%    MPKI:0.00
PC:15daa     Total:14611      MisBP:0   MisRate:0.00%    MPKI:0.00
PC:15da8     Total:14569      MisBP:0   MisRate:0.00%    MPKI:0.00
PC:12216     Total:380182      MisBP:0   MisRate:0.00%    MPKI:0.00
PC:15954     Total:14348      MisBP:0   MisRate:0.00%    MPKI:0.00
PC:15da6     Total:14569      MisBP:0   MisRate:0.00%    MPKI:0.00
PC:19044     Total:2      MisBP:0   MisRate:0.00%    MPKI:0.00
PC:121d4     Total:737      MisBP:0   MisRate:0.00%    MPKI:0.00
PC:121d0     Total:737      MisBP:0   MisRate:0.00%    MPKI:0.00
PC:140d0     Total:128      MisBP:0   MisRate:0.00%    MPKI:0.00
PC:19112     Total:3      MisBP:0   MisRate:0.00%    MPKI:0.00
PC:1688e     Total:37      MisBP:0   MisRate:0.00%    MPKI:0.00
PC:1904c     Total:2      MisBP:0   MisRate:0.00%    MPKI:0.00
PC:121ce     Total:737      MisBP:0   MisRate:0.00%    MPKI:0.00
PC:121ca     Total:739      MisBP:0   MisRate:0.00%    MPKI:0.00
PC:121c8     Total:738      MisBP:0   MisRate:0.00%    MPKI:0.00
PC:140c8     Total:125      MisBP:0   MisRate:0.00%    MPKI:0.00
PC:16886     Total:37      MisBP:0   MisRate:0.00%    MPKI:0.00
PC:19054     Total:2      MisBP:0   MisRate:0.00%    MPKI:0.00
PC:121c4     Total:739      MisBP:0   MisRate:0.00%    MPKI:0.00
PC:121c2     Total:741      MisBP:0   MisRate:0.00%    MPKI:0.00
PC:140c2     Total:123      MisBP:0   MisRate:0.00%    MPKI:0.00
PC:19104     Total:3      MisBP:0   MisRate:0.00%    MPKI:0.00
PC:1903e     Total:2      MisBP:0   MisRate:0.00%    MPKI:0.00
PC:121bc     Total:757      MisBP:0   MisRate:0.00%    MPKI:0.00
PC:1687a     Total:40      MisBP:0   MisRate:0.00%    MPKI:0.00
PC:19038     Total:3      MisBP:0   MisRate:0.00%    MPKI:0.00
PC:121ba     Total:757      MisBP:0   MisRate:0.00%    MPKI:0.00
PC:121b6     Total:757      MisBP:0   MisRate:0.00%    MPKI:0.00
PC:168a4     Total:3      MisBP:0   MisRate:0.00%    MPKI:0.00
PC:121f2     Total:487      MisBP:0   MisRate:0.00%    MPKI:0.00
PC:1906e     Total:2      MisBP:0   MisRate:0.00%    MPKI:0.00
PC:168ae     Total:1      MisBP:0   MisRate:0.00%    MPKI:0.00
PC:1906c     Total:2      MisBP:0   MisRate:0.00%    MPKI:0.00
PC:121ee     Total:670      MisBP:0   MisRate:0.00%    MPKI:0.00
PC:121ec     Total:162      MisBP:0   MisRate:0.00%    MPKI:0.00
PC:168aa     Total:2      MisBP:0   MisRate:0.00%    MPKI:0.00
PC:19068     Total:2      MisBP:0   MisRate:0.00%    MPKI:0.00
PC:121ea     Total:162      MisBP:0   MisRate:0.00%    MPKI:0.00
PC:121e6     Total:166      MisBP:0   MisRate:0.00%    MPKI:0.00
PC:12230     Total:1      MisBP:0   MisRate:0.00%    MPKI:0.00
PC:19062     Total:2      MisBP:0   MisRate:0.00%    MPKI:0.00
PC:121e4     Total:167      MisBP:0   MisRate:0.00%    MPKI:0.00
PC:121e2     Total:168      MisBP:0   MisRate:0.00%    MPKI:0.00
PC:1905e     Total:2      MisBP:0   MisRate:0.00%    MPKI:0.00
PC:121e0     Total:168      MisBP:0   MisRate:0.00%    MPKI:0.00
PC:1689e     Total:3      MisBP:0   MisRate:0.00%    MPKI:0.00
PC:1905c     Total:2      MisBP:0   MisRate:0.00%    MPKI:0.00
PC:19058     Total:2      MisBP:0   MisRate:0.00%    MPKI:0.00
PC:121da     Total:730      MisBP:0   MisRate:0.00%    MPKI:0.00
PC:121d8     Total:730      MisBP:0   MisRate:0.00%    MPKI:0.00
PC:11e40     Total:313      MisBP:0   MisRate:0.00%    MPKI:0.00
PC:292d2     Total:4      MisBP:0   MisRate:0.00%    MPKI:0.00
PC:10188     Total:22      MisBP:0   MisRate:0.00%    MPKI:0.00
PC:151ca     Total:1      MisBP:0   MisRate:0.00%    MPKI:0.00
PC:297b8     Total:62      MisBP:0   MisRate:0.00%    MPKI:0.00
PC:159c8     Total:14417      MisBP:0   MisRate:0.00%    MPKI:0.00
PC:11e44     Total:626      MisBP:0   MisRate:0.00%    MPKI:0.00
PC:154de     Total:11      MisBP:0   MisRate:0.00%    MPKI:0.00
PC:292ce     Total:4      MisBP:0   MisRate:0.00%    MPKI:0.00
PC:10184     Total:88      MisBP:0   MisRate:0.00%    MPKI:0.00
PC:297b4     Total:31      MisBP:0   MisRate:0.00%    MPKI:0.00
PC:159c4     Total:14396      MisBP:0   MisRate:0.00%    MPKI:0.00
PC:154e2     Total:37      MisBP:0   MisRate:0.00%    MPKI:0.00
PC:292cc     Total:4      MisBP:0   MisRate:0.00%    MPKI:0.00
PC:151c4     Total:1      MisBP:0   MisRate:0.00%    MPKI:0.00
PC:12284     Total:87463      MisBP:0   MisRate:0.00%    MPKI:0.00
PC:11e3e     Total:319      MisBP:0   MisRate:0.00%    MPKI:0.00
PC:14d28     Total:7873      MisBP:0   MisRate:0.00%    MPKI:0.00
PC:1256a     Total:1      MisBP:0   MisRate:0.00%    MPKI:0.00
PC:14d22     Total:7597      MisBP:0   MisRate:0.00%    MPKI:0.00
PC:12564     Total:1      MisBP:0   MisRate:0.00%    MPKI:0.00
PC:1227a     Total:91071      MisBP:0   MisRate:0.00%    MPKI:0.00
PC:14a38     Total:204851      MisBP:0   MisRate:0.00%    MPKI:0.00
PC:11e54     Total:305      MisBP:0   MisRate:0.00%    MPKI:0.00
PC:12530     Total:2      MisBP:0   MisRate:0.00%    MPKI:0.00
PC:15c6e     Total:14708      MisBP:0   MisRate:0.00%    MPKI:0.00
PC:1252e     Total:2      MisBP:0   MisRate:0.00%    MPKI:0.00
PC:15c6c     Total:14708      MisBP:0   MisRate:0.00%    MPKI:0.00
PC:11e58     Total:304      MisBP:0   MisRate:0.00%    MPKI:0.00
PC:154f4     Total:45      MisBP:0   MisRate:0.00%    MPKI:0.00
PC:295fc     Total:1429      MisBP:0   MisRate:0.00%    MPKI:0.00
PC:292e4     Total:65      MisBP:0   MisRate:0.00%    MPKI:0.00
PC:151dc     Total:9      MisBP:0   MisRate:0.00%    MPKI:0.00
PC:159da     Total:14412      MisBP:0   MisRate:0.00%    MPKI:0.00
PC:11e56     Total:305      MisBP:0   MisRate:0.00%    MPKI:0.00
PC:15ca2     Total:14536      MisBP:0   MisRate:0.00%    MPKI:0.00
PC:11e52     Total:306      MisBP:0   MisRate:0.00%    MPKI:0.00
PC:11e50     Total:311      MisBP:0   MisRate:0.00%    MPKI:0.00
PC:11e4e     Total:311      MisBP:0   MisRate:0.00%    MPKI:0.00
PC:11e4c     Total:312      MisBP:0   MisRate:0.00%    MPKI:0.00
PC:11e4a     Total:312      MisBP:0   MisRate:0.00%    MPKI:0.00
PC:154e6     Total:37      MisBP:0   MisRate:0.00%    MPKI:0.00
PC:14a4c     Total:193756      MisBP:0   MisRate:0.00%    MPKI:0.00
PC:1228e     Total:87548      MisBP:0   MisRate:0.00%    MPKI:0.00
PC:159cc     Total:14417      MisBP:0   MisRate:0.00%    MPKI:0.00
PC:11e48     Total:313      MisBP:0   MisRate:0.00%    MPKI:0.00
PC:15c7c     Total:14658      MisBP:0   MisRate:0.00%    MPKI:0.00
PC:15c86     Total:14567      MisBP:0   MisRate:0.00%    MPKI:0.00
PC:12544     Total:1      MisBP:0   MisRate:0.00%    MPKI:0.00
PC:15c82     Total:14589      MisBP:0   MisRate:0.00%    MPKI:0.00
PC:14d00     Total:7508      MisBP:0   MisRate:0.00%    MPKI:0.00
PC:12542     Total:1      MisBP:0   MisRate:0.00%    MPKI:0.00
PC:15c80     Total:14589      MisBP:0   MisRate:0.00%    MPKI:0.00
PC:14cfe     Total:7776      MisBP:0   MisRate:0.00%    MPKI:0.00
PC:12540     Total:586      MisBP:0   MisRate:0.00%    MPKI:0.00
PC:15c7e     Total:14658      MisBP:0   MisRate:0.00%    MPKI:0.00
PC:14cfc     Total:7777      MisBP:0   MisRate:0.00%    MPKI:0.00
PC:1253e     Total:593      MisBP:0   MisRate:0.00%    MPKI:0.00
PC:12548     Total:1      MisBP:0   MisRate:0.00%    MPKI:0.00
PC:1548c     Total:14334      MisBP:0   MisRate:0.00%    MPKI:0.00
PC:29594     Total:1431      MisBP:0   MisRate:0.00%    MPKI:0.00
PC:2927c     Total:6      MisBP:0   MisRate:0.00%    MPKI:0.00
PC:15174     Total:6      MisBP:0   MisRate:0.00%    MPKI:0.00
PC:12234     Total:46677      MisBP:0   MisRate:0.00%    MPKI:0.00
PC:15972     Total:14347      MisBP:0   MisRate:0.00%    MPKI:0.00
PC:15488     Total:14334      MisBP:0   MisRate:0.00%    MPKI:0.00
PC:29590     Total:1431      MisBP:0   MisRate:0.00%    MPKI:0.00
PC:29278     Total:6      MisBP:0   MisRate:0.00%    MPKI:0.00
PC:15170     Total:6      MisBP:0   MisRate:0.00%    MPKI:0.00
PC:14d0e     Total:7552      MisBP:0   MisRate:0.00%    MPKI:0.00
PC:12560     Total:1      MisBP:0   MisRate:0.00%    MPKI:0.00
PC:15c9e     Total:14536      MisBP:0   MisRate:0.00%    MPKI:0.00
PC:14d1a     Total:7601      MisBP:0   MisRate:0.00%    MPKI:0.00
PC:1255c     Total:1      MisBP:0   MisRate:0.00%    MPKI:0.00
PC:12272     Total:93067      MisBP:0   MisRate:0.00%    MPKI:0.00
PC:14a30     Total:203300      MisBP:0   MisRate:0.00%    MPKI:0.00
PC:14d14     Total:7552      MisBP:0   MisRate:0.00%    MPKI:0.00
PC:12556     Total:1      MisBP:0   MisRate:0.00%    MPKI:0.00
PC:1226c     Total:93991      MisBP:0   MisRate:0.00%    MPKI:0.00
PC:14a2a     Total:383058      MisBP:0   MisRate:0.00%    MPKI:0.00
PC:15dce     Total:14558      MisBP:0   MisRate:0.00%    MPKI:0.00
PC:12550     Total:1      MisBP:0   MisRate:0.00%    MPKI:0.00
PC:15c8e     Total:14567      MisBP:0   MisRate:0.00%    MPKI:0.00
PC:14d0c     Total:7552      MisBP:0   MisRate:0.00%    MPKI:0.00
PC:1254e     Total:1      MisBP:0   MisRate:0.00%    MPKI:0.00
PC:12264     Total:44579      MisBP:0   MisRate:0.00%    MPKI:0.00
PC:14a22     Total:383214      MisBP:0   MisRate:0.00%    MPKI:0.00
PC:15c8c     Total:14567      MisBP:0   MisRate:0.00%    MPKI:0.00
PC:1254a     Total:1      MisBP:0   MisRate:0.00%    MPKI:0.00
PC:15c88     Total:14567      MisBP:0   MisRate:0.00%    MPKI:0.00
PC:14d06     Total:7508      MisBP:0   MisRate:0.00%    MPKI:0.00
PC:16024     Total:14700      MisBP:0   MisRate:0.00%    MPKI:0.00
PC:1603c     Total:14720      MisBP:0   MisRate:0.00%    MPKI:0.00
PC:1603a     Total:14720      MisBP:0   MisRate:0.00%    MPKI:0.00
PC:16038     Total:14720      MisBP:0   MisRate:0.00%    MPKI:0.00
PC:16036     Total:14722      MisBP:0   MisRate:0.00%    MPKI:0.00
PC:16032     Total:14722      MisBP:0   MisRate:0.00%    MPKI:0.00
PC:16030     Total:14722      MisBP:0   MisRate:0.00%    MPKI:0.00
PC:1602e     Total:14722      MisBP:0   MisRate:0.00%    MPKI:0.00
PC:1602c     Total:14722      MisBP:0   MisRate:0.00%    MPKI:0.00
PC:1602a     Total:14743      MisBP:0   MisRate:0.00%    MPKI:0.00
PC:16028     Total:14701      MisBP:0   MisRate:0.00%    MPKI:0.00
PC:16026     Total:14701      MisBP:0   MisRate:0.00%    MPKI:0.00
PC:1603e     Total:14679      MisBP:0   MisRate:0.00%    MPKI:0.00
PC:16020     Total:14704      MisBP:0   MisRate:0.00%    MPKI:0.00
PC:1601e     Total:14704      MisBP:0   MisRate:0.00%    MPKI:0.00
PC:1601c     Total:14705      MisBP:0   MisRate:0.00%    MPKI:0.00
PC:1601a     Total:14705      MisBP:0   MisRate:0.00%    MPKI:0.00
PC:16018     Total:14710      MisBP:0   MisRate:0.00%    MPKI:0.00
PC:16014     Total:14710      MisBP:0   MisRate:0.00%    MPKI:0.00
PC:16010     Total:14710      MisBP:0   MisRate:0.00%    MPKI:0.00
PC:1600e     Total:14711      MisBP:0   MisRate:0.00%    MPKI:0.00
PC:1600a     Total:14716      MisBP:0   MisRate:0.00%    MPKI:0.00
PC:16006     Total:14716      MisBP:0   MisRate:0.00%    MPKI:0.00
PC:16056     Total:14633      MisBP:0   MisRate:0.00%    MPKI:0.00
PC:16066     Total:14611      MisBP:0   MisRate:0.00%    MPKI:0.00
PC:11024     Total:105      MisBP:0   MisRate:0.00%    MPKI:0.00
PC:16062     Total:14612      MisBP:0   MisRate:0.00%    MPKI:0.00
PC:11020     Total:105      MisBP:0   MisRate:0.00%    MPKI:0.00
PC:16060     Total:14635      MisBP:0   MisRate:0.00%    MPKI:0.00
PC:1101e     Total:105      MisBP:0   MisRate:0.00%    MPKI:0.00
PC:1605e     Total:14633      MisBP:0   MisRate:0.00%    MPKI:0.00
PC:1101c     Total:105      MisBP:0   MisRate:0.00%    MPKI:0.00
PC:1605c     Total:14633      MisBP:0   MisRate:0.00%    MPKI:0.00
PC:1101a     Total:105      MisBP:0   MisRate:0.00%    MPKI:0.00
PC:1605a     Total:14633      MisBP:0   MisRate:0.00%    MPKI:0.00
PC:16002     Total:14721      MisBP:0   MisRate:0.00%    MPKI:0.00
PC:16052     Total:14633      MisBP:0   MisRate:0.00%    MPKI:0.00
PC:11010     Total:525      MisBP:0   MisRate:0.00%    MPKI:0.00
PC:1604e     Total:14667      MisBP:0   MisRate:0.00%    MPKI:0.00
PC:1604c     Total:14667      MisBP:0   MisRate:0.00%    MPKI:0.00
PC:1604a     Total:14667      MisBP:0   MisRate:0.00%    MPKI:0.00
PC:16048     Total:14666      MisBP:0   MisRate:0.00%    MPKI:0.00
PC:16046     Total:14666      MisBP:0   MisRate:0.00%    MPKI:0.00
PC:16044     Total:14647      MisBP:0   MisRate:0.00%    MPKI:0.00
PC:16042     Total:14648      MisBP:0   MisRate:0.00%    MPKI:0.00
PC:16040     Total:14653      MisBP:0   MisRate:0.00%    MPKI:0.00
PC:10f84     Total:125      MisBP:0   MisRate:0.00%    MPKI:0.00
PC:15fda     Total:14642      MisBP:0   MisRate:0.00%    MPKI:0.00
PC:10f98     Total:113      MisBP:0   MisRate:0.00%    MPKI:0.00
PC:15fd8     Total:14600      MisBP:0   MisRate:0.00%    MPKI:0.00
PC:15fd6     Total:14600      MisBP:0   MisRate:0.00%    MPKI:0.00
PC:10f94     Total:125      MisBP:0   MisRate:0.00%    MPKI:0.00
PC:15fd2     Total:14586      MisBP:0   MisRate:0.00%    MPKI:0.00
PC:15fd0     Total:14587      MisBP:0   MisRate:0.00%    MPKI:0.00
PC:10f8e     Total:125      MisBP:0   MisRate:0.00%    MPKI:0.00
PC:15fce     Total:14561      MisBP:0   MisRate:0.00%    MPKI:0.00
PC:15fca     Total:14561      MisBP:0   MisRate:0.00%    MPKI:0.00
PC:15fc6     Total:14561      MisBP:0   MisRate:0.00%    MPKI:0.00
PC:15fde     Total:14642      MisBP:0   MisRate:0.00%    MPKI:0.00
PC:15fc4     Total:14561      MisBP:0   MisRate:0.00%    MPKI:0.00
PC:10f82     Total:125      MisBP:0   MisRate:0.00%    MPKI:0.00
PC:11046     Total:102      MisBP:0   MisRate:0.00%    MPKI:0.00
PC:15fbe     Total:14523      MisBP:0   MisRate:0.00%    MPKI:0.00
PC:10f7c     Total:127      MisBP:0   MisRate:0.00%    MPKI:0.00
PC:15fba     Total:14594      MisBP:0   MisRate:0.00%    MPKI:0.00
PC:15fb8     Total:14594      MisBP:0   MisRate:0.00%    MPKI:0.00
PC:10f76     Total:127      MisBP:0   MisRate:0.00%    MPKI:0.00
PC:15fb6     Total:14594      MisBP:0   MisRate:0.00%    MPKI:0.00
PC:15fb4     Total:14574      MisBP:0   MisRate:0.00%    MPKI:0.00
PC:15ff4     Total:14738      MisBP:0   MisRate:0.00%    MPKI:0.00
PC:16000     Total:14721      MisBP:0   MisRate:0.00%    MPKI:0.00
PC:15ffe     Total:14749      MisBP:0   MisRate:0.00%    MPKI:0.00
PC:15ffc     Total:14749      MisBP:0   MisRate:0.00%    MPKI:0.00
PC:10fba     Total:428      MisBP:0   MisRate:0.00%    MPKI:0.00
PC:15ffa     Total:14749      MisBP:0   MisRate:0.00%    MPKI:0.00
PC:10fb8     Total:109      MisBP:0   MisRate:0.00%    MPKI:0.00
PC:15ff8     Total:14751      MisBP:0   MisRate:0.00%    MPKI:0.00
PC:10fb6     Total:109      MisBP:0   MisRate:0.00%    MPKI:0.00
PC:15ff6     Total:14735      MisBP:0   MisRate:0.00%    MPKI:0.00
PC:10fb4     Total:109      MisBP:0   MisRate:0.00%    MPKI:0.00
PC:11026     Total:105      MisBP:0   MisRate:0.00%    MPKI:0.00
PC:10fb2     Total:109      MisBP:0   MisRate:0.00%    MPKI:0.00
PC:15ff0     Total:14658      MisBP:0   MisRate:0.00%    MPKI:0.00
PC:10fae     Total:109      MisBP:0   MisRate:0.00%    MPKI:0.00
PC:15fee     Total:14658      MisBP:0   MisRate:0.00%    MPKI:0.00
PC:10fac     Total:109      MisBP:0   MisRate:0.00%    MPKI:0.00
PC:15fec     Total:14636      MisBP:0   MisRate:0.00%    MPKI:0.00
PC:10faa     Total:109      MisBP:0   MisRate:0.00%    MPKI:0.00
PC:15fe8     Total:14637      MisBP:0   MisRate:0.00%    MPKI:0.00
PC:15fe2     Total:14640      MisBP:0   MisRate:0.00%    MPKI:0.00
PC:10fa0     Total:1      MisBP:0   MisRate:0.00%    MPKI:0.00
PC:160d2     Total:14551      MisBP:0   MisRate:0.00%    MPKI:0.00
PC:160ec     Total:14580      MisBP:0   MisRate:0.00%    MPKI:0.00
PC:160ea     Total:14580      MisBP:0   MisRate:0.00%    MPKI:0.00
PC:160e8     Total:14580      MisBP:0   MisRate:0.00%    MPKI:0.00
[...]
PC:159d2     Total:14417      MisBP:0   MisRate:0.00%    MPKI:0.00
PC:141b2     Total:4      MisBP:0   MisRate:0.00%    MPKI:0.00
PC:122b2     Total:365893      MisBP:0   MisRate:0.00%    MPKI:0.00
PC:11f5a     Total:2334870      MisBP:0   MisRate:0.00%    MPKI:0.00
PC:15128     Total:6      MisBP:0   MisRate:0.00%    MPKI:0.00
PC:11b2c     Total:24942      MisBP:0   MisRate:0.00%    MPKI:0.00
PC:1526a     Total:8      MisBP:0   MisRate:0.00%    MPKI:0.00
PC:123f2     Total:17587      MisBP:0   MisRate:0.00%    MPKI:0.00
PC:15ad2     Total:14489      MisBP:0   MisRate:0.00%    MPKI:0.00
PC:12394     Total:240563      MisBP:0   MisRate:0.00%    MPKI:0.00
PC:14b52     Total:3      MisBP:0   MisRate:0.00%    MPKI:0.00
PC:12296     Total:85980      MisBP:0   MisRate:0.00%    MPKI:0.00
PC:11fb8     Total:2      MisBP:0   MisRate:0.00%    MPKI:0.00
PC:1223e     Total:42617      MisBP:0   MisRate:0.00%    MPKI:0.00
PC:11b2a     Total:24942      MisBP:0   MisRate:0.00%    MPKI:0.00
PC:11aea     Total:1294369      MisBP:0   MisRate:0.00%    MPKI:0.00
PC:11ee0     Total:33558      MisBP:0   MisRate:0.00%    MPKI:0.00
PC:15c9c     Total:14536      MisBP:0   MisRate:0.00%    MPKI:0.00
PC:14a32     Total:202991      MisBP:0   MisRate:0.00%    MPKI:0.00
PC:12274     Total:93176      MisBP:0   MisRate:0.00%    MPKI:0.00
PC:11aa6     Total:1479634      MisBP:0   MisRate:0.00%    MPKI:0.00
PC:191e0     Total:3      MisBP:0   MisRate:0.00%    MPKI:0.00
PC:15a8e     Total:14558      MisBP:0   MisRate:0.00%    MPKI:0.00
PC:1418a     Total:2      MisBP:0   MisRate:0.00%    MPKI:0.00
PC:11f9a     Total:79139      MisBP:0   MisRate:0.00%    MPKI:0.00
PC:14bae     Total:2      MisBP:0   MisRate:0.00%    MPKI:0.00
PC:159f0     Total:14449      MisBP:0   MisRate:0.00%    MPKI:0.00
PC:141aa     Total:5      MisBP:0   MisRate:0.00%    MPKI:0.00
PC:191e6     Total:3      MisBP:0   MisRate:0.00%    MPKI:0.00
PC:11aac     Total:1461861      MisBP:0   MisRate:0.00%    MPKI:0.00
PC:141a4     Total:127      MisBP:0   MisRate:0.00%    MPKI:0.00
PC:1512a     Total:6      MisBP:0   MisRate:0.00%    MPKI:0.00
PC:159d4     Total:14413      MisBP:0   MisRate:0.00%    MPKI:0.00
PC:1912e     Total:3      MisBP:0   MisRate:0.00%    MPKI:0.00
PC:165a8     Total:1      MisBP:1   MisRate:100.00%    MPKI:0.00
PC:15408     Total:14363      MisBP:1   MisRate:0.01%    MPKI:0.00
PC:1417e     Total:19      MisBP:1   MisRate:5.26%    MPKI:0.00
PC:3970e     Total:3      MisBP:1   MisRate:33.33%    MPKI:0.00
PC:152f0     Total:150      MisBP:1   MisRate:0.67%    MPKI:0.00
PC:14f2e     Total:4      MisBP:1   MisRate:25.00%    MPKI:0.00
PC:166c4     Total:30      MisBP:1   MisRate:3.33%    MPKI:0.00
PC:3623a     Total:32      MisBP:1   MisRate:3.12%    MPKI:0.00
PC:12f14     Total:14      MisBP:1   MisRate:7.14%    MPKI:0.00
PC:15504     Total:5      MisBP:1   MisRate:20.00%    MPKI:0.00
PC:125b2     Total:1      MisBP:1   MisRate:100.00%    MPKI:0.00
PC:18fa0     Total:9      MisBP:1   MisRate:11.11%    MPKI:0.00
PC:121be     Total:743      MisBP:1   MisRate:0.13%    MPKI:0.00
PC:29404     Total:115      MisBP:1   MisRate:0.87%    MPKI:0.00
PC:3624e     Total:29      MisBP:1   MisRate:3.45%    MPKI:0.00
PC:14f1e     Total:5      MisBP:1   MisRate:20.00%    MPKI:0.00
PC:130ae     Total:529041      MisBP:1   MisRate:0.00%    MPKI:0.00
PC:29348     Total:129      MisBP:1   MisRate:0.78%    MPKI:0.00
PC:14f16     Total:7496      MisBP:1   MisRate:0.01%    MPKI:0.00
PC:15196     Total:5      MisBP:1   MisRate:20.00%    MPKI:0.00
PC:12e6c     Total:78552      MisBP:1   MisRate:0.00%    MPKI:0.00
PC:11b88     Total:1      MisBP:1   MisRate:100.00%    MPKI:0.00
PC:12fde     Total:1      MisBP:1   MisRate:100.00%    MPKI:0.00
PC:128f6     Total:135      MisBP:1   MisRate:0.74%    MPKI:0.00
PC:1272a     Total:108      MisBP:1   MisRate:0.93%    MPKI:0.00
PC:10f9c     Total:113      MisBP:1   MisRate:0.88%    MPKI:0.00
PC:11c66     Total:6      MisBP:1   MisRate:16.67%    MPKI:0.00
PC:125f0     Total:267895      MisBP:1   MisRate:0.00%    MPKI:0.00
PC:15498     Total:14333      MisBP:1   MisRate:0.01%    MPKI:0.00
PC:12fd8     Total:1      MisBP:1   MisRate:100.00%    MPKI:0.00
PC:13000     Total:4      MisBP:1   MisRate:25.00%    MPKI:0.00
PC:11c96     Total:8      MisBP:1   MisRate:12.50%    MPKI:0.00
PC:14bfe     Total:6049      MisBP:1   MisRate:0.02%    MPKI:0.00
PC:11d68     Total:5      MisBP:1   MisRate:20.00%    MPKI:0.00
PC:14af2     Total:1      MisBP:1   MisRate:100.00%    MPKI:0.00
PC:29470     Total:103      MisBP:2   MisRate:1.94%    MPKI:0.00
PC:140be     Total:102      MisBP:2   MisRate:1.96%    MPKI:0.00
PC:13074     Total:1109      MisBP:2   MisRate:0.18%    MPKI:0.00
PC:14bc4     Total:352      MisBP:2   MisRate:0.57%    MPKI:0.00
PC:10ecc     Total:113      MisBP:2   MisRate:1.77%    MPKI:0.00
PC:15286     Total:168      MisBP:2   MisRate:1.19%    MPKI:0.00
PC:1516a     Total:10      MisBP:2   MisRate:20.00%    MPKI:0.00
PC:12e5c     Total:134      MisBP:2   MisRate:1.49%    MPKI:0.00
PC:1104e     Total:102      MisBP:2   MisRate:1.96%    MPKI:0.00
PC:12902     Total:104      MisBP:2   MisRate:1.92%    MPKI:0.00
PC:18fb2     Total:7      MisBP:2   MisRate:28.57%    MPKI:0.00
PC:12640     Total:17      MisBP:2   MisRate:11.76%    MPKI:0.00
PC:15934     Total:14607      MisBP:2   MisRate:0.01%    MPKI:0.00
PC:166a8     Total:32      MisBP:2   MisRate:6.25%    MPKI:0.00
PC:151f8     Total:3      MisBP:2   MisRate:66.67%    MPKI:0.00
PC:14f58     Total:30      MisBP:2   MisRate:6.67%    MPKI:0.00
PC:13354     Total:683      MisBP:2   MisRate:0.29%    MPKI:0.00
PC:1666e     Total:9      MisBP:2   MisRate:22.22%    MPKI:0.00
PC:1253a     Total:25      MisBP:2   MisRate:8.00%    MPKI:0.00
PC:11d8a     Total:259      MisBP:2   MisRate:0.77%    MPKI:0.00
PC:11b52     Total:1185257      MisBP:2   MisRate:0.00%    MPKI:0.00
PC:151f0     Total:10      MisBP:2   MisRate:20.00%    MPKI:0.00
PC:152aa     Total:12      MisBP:2   MisRate:16.67%    MPKI:0.00
PC:16696     Total:27      MisBP:2   MisRate:7.41%    MPKI:0.00
PC:165be     Total:15      MisBP:2   MisRate:13.33%    MPKI:0.00
PC:141a8     Total:127      MisBP:2   MisRate:1.57%    MPKI:0.00
PC:140d2     Total:914      MisBP:2   MisRate:0.22%    MPKI:0.00
PC:16896     Total:35      MisBP:2   MisRate:5.71%    MPKI:0.00
PC:361f6     Total:115      MisBP:3   MisRate:2.61%    MPKI:0.00
PC:29818     Total:21      MisBP:3   MisRate:14.29%    MPKI:0.00
PC:293d0     Total:114      MisBP:3   MisRate:2.63%    MPKI:0.00
PC:16768     Total:10      MisBP:3   MisRate:30.00%    MPKI:0.00
PC:11d9a     Total:16      MisBP:3   MisRate:18.75%    MPKI:0.00
PC:166b6     Total:31      MisBP:3   MisRate:9.68%    MPKI:0.00
PC:11cc6     Total:65544      MisBP:3   MisRate:0.00%    MPKI:0.00
PC:121f0     Total:670      MisBP:3   MisRate:0.45%    MPKI:0.00
PC:166e8     Total:32      MisBP:3   MisRate:9.38%    MPKI:0.00
PC:29354     Total:20      MisBP:4   MisRate:20.00%    MPKI:0.00
PC:15576     Total:14331      MisBP:4   MisRate:0.03%    MPKI:0.00
PC:14bde     Total:151      MisBP:4   MisRate:2.65%    MPKI:0.00
PC:18fd0     Total:5      MisBP:4   MisRate:80.00%    MPKI:0.00
PC:125f6     Total:267897      MisBP:4   MisRate:0.00%    MPKI:0.00
PC:167d0     Total:459      MisBP:4   MisRate:0.87%    MPKI:0.00
PC:167fa     Total:16      MisBP:4   MisRate:25.00%    MPKI:0.00
PC:16802     Total:4      MisBP:4   MisRate:100.00%    MPKI:0.00
PC:11bb4     Total:65553      MisBP:4   MisRate:0.01%    MPKI:0.00
PC:166f0     Total:7      MisBP:4   MisRate:57.14%    MPKI:0.00
PC:14162     Total:169      MisBP:4   MisRate:2.37%    MPKI:0.00
PC:11c90     Total:40      MisBP:5   MisRate:12.50%    MPKI:0.00
PC:153d2     Total:10      MisBP:5   MisRate:50.00%    MPKI:0.00
PC:18d92     Total:2063      MisBP:5   MisRate:0.24%    MPKI:0.00
PC:10158     Total:444      MisBP:5   MisRate:1.13%    MPKI:0.00
PC:11d58     Total:125096      MisBP:5   MisRate:0.00%    MPKI:0.00
PC:1532a     Total:8      MisBP:5   MisRate:62.50%    MPKI:0.00
PC:154fa     Total:45      MisBP:5   MisRate:11.11%    MPKI:0.00
PC:13382     Total:117      MisBP:5   MisRate:4.27%    MPKI:0.00
PC:16606     Total:8407      MisBP:5   MisRate:0.06%    MPKI:0.00
PC:16760     Total:6381      MisBP:5   MisRate:0.08%    MPKI:0.00
PC:16854     Total:6847      MisBP:6   MisRate:0.09%    MPKI:0.00
PC:1511c     Total:889733      MisBP:6   MisRate:0.00%    MPKI:0.00
PC:14bf6     Total:149      MisBP:6   MisRate:4.03%    MPKI:0.00
PC:13346     Total:125      MisBP:6   MisRate:4.80%    MPKI:0.00
PC:12eae     Total:23      MisBP:6   MisRate:26.09%    MPKI:0.00
PC:11c50     Total:125067      MisBP:6   MisRate:0.00%    MPKI:0.00
PC:12e56     Total:116      MisBP:6   MisRate:5.17%    MPKI:0.00
PC:1208c     Total:448      MisBP:7   MisRate:1.56%    MPKI:0.00
PC:18e8c     Total:98      MisBP:7   MisRate:7.14%    MPKI:0.00
PC:1697a     Total:543      MisBP:7   MisRate:1.29%    MPKI:0.00
PC:12eda     Total:278      MisBP:7   MisRate:2.52%    MPKI:0.00
PC:15444     Total:124      MisBP:7   MisRate:5.65%    MPKI:0.00
PC:1530e     Total:714      MisBP:7   MisRate:0.98%    MPKI:0.00
PC:16644     Total:814      MisBP:7   MisRate:0.86%    MPKI:0.00
PC:153a8     Total:83      MisBP:7   MisRate:8.43%    MPKI:0.00
PC:18de2     Total:75      MisBP:8   MisRate:10.67%    MPKI:0.00
PC:12efc     Total:115      MisBP:8   MisRate:6.96%    MPKI:0.00
PC:153cc     Total:27      MisBP:9   MisRate:33.33%    MPKI:0.00
PC:154cc     Total:80      MisBP:9   MisRate:11.25%    MPKI:0.00
PC:29654     Total:1428      MisBP:9   MisRate:0.63%    MPKI:0.00
PC:1308a     Total:14802      MisBP:9   MisRate:0.06%    MPKI:0.00
PC:151e8     Total:936      MisBP:10   MisRate:1.07%    MPKI:0.00
PC:1593e     Total:14347      MisBP:10   MisRate:0.07%    MPKI:0.00
PC:18e28     Total:463      MisBP:10   MisRate:2.16%    MPKI:0.00
PC:15292     Total:175      MisBP:10   MisRate:5.71%    MPKI:0.00
PC:167f2     Total:1785      MisBP:10   MisRate:0.56%    MPKI:0.00
PC:1414a     Total:142      MisBP:11   MisRate:7.75%    MPKI:0.00
PC:11b12     Total:1238737      MisBP:14   MisRate:0.00%    MPKI:0.00
PC:111de     Total:25      MisBP:14   MisRate:56.00%    MPKI:0.00
PC:297a0     Total:31      MisBP:14   MisRate:45.16%    MPKI:0.00
PC:15302     Total:854      MisBP:15   MisRate:1.76%    MPKI:0.00
PC:293c4     Total:129      MisBP:15   MisRate:11.63%    MPKI:0.00
PC:14168     Total:168      MisBP:15   MisRate:8.93%    MPKI:0.00
PC:18c2e     Total:7632      MisBP:16   MisRate:0.21%    MPKI:0.00
PC:1227c     Total:91061      MisBP:18   MisRate:0.02%    MPKI:0.00
PC:11e2a     Total:36      MisBP:18   MisRate:50.00%    MPKI:0.00
PC:120e6     Total:449      MisBP:19   MisRate:4.23%    MPKI:0.00
PC:166e2     Total:415      MisBP:19   MisRate:4.58%    MPKI:0.00
PC:29804     Total:1316      MisBP:20   MisRate:1.52%    MPKI:0.00
PC:12ea0     Total:78553      MisBP:20   MisRate:0.03%    MPKI:0.00
PC:153c2     Total:3244      MisBP:20   MisRate:0.62%    MPKI:0.00
PC:12140     Total:401      MisBP:26   MisRate:6.48%    MPKI:0.00
PC:16692     Total:596      MisBP:27   MisRate:4.53%    MPKI:0.00
PC:1668c     Total:589      MisBP:28   MisRate:4.75%    MPKI:0.00
PC:130c8     Total:27789      MisBP:29   MisRate:0.10%    MPKI:0.00
PC:14bb6     Total:351      MisBP:30   MisRate:8.55%    MPKI:0.00
PC:18e16     Total:5928      MisBP:31   MisRate:0.52%    MPKI:0.00
PC:12180     Total:834      MisBP:32   MisRate:3.84%    MPKI:0.00
PC:18e84     Total:10893      MisBP:33   MisRate:0.30%    MPKI:0.00
PC:11e26     Total:2525      MisBP:33   MisRate:1.31%    MPKI:0.00
PC:166d4     Total:427      MisBP:37   MisRate:8.67%    MPKI:0.00
PC:121dc     Total:730      MisBP:39   MisRate:5.34%    MPKI:0.00
PC:18c4e     Total:263      MisBP:40   MisRate:15.21%    MPKI:0.00
PC:18ca4     Total:6280      MisBP:42   MisRate:0.67%    MPKI:0.00
PC:18b64     Total:5966      MisBP:48   MisRate:0.80%    MPKI:0.00
PC:18bf8     Total:7736      MisBP:52   MisRate:0.67%    MPKI:0.00
PC:18cc4     Total:227      MisBP:56   MisRate:24.67%    MPKI:0.00
PC:11dfc     Total:2672      MisBP:56   MisRate:2.10%    MPKI:0.00
PC:18de0     Total:4233      MisBP:66   MisRate:1.56%    MPKI:0.00
PC:12182     Total:114      MisBP:67   MisRate:58.77%    MPKI:0.00
PC:12224     Total:309      MisBP:78   MisRate:25.24%    MPKI:0.00
PC:15440     Total:630      MisBP:87   MisRate:13.81%    MPKI:0.00
PC:12da0     Total:2253      MisBP:87   MisRate:3.86%    MPKI:0.00
PC:167cc     Total:508      MisBP:98   MisRate:19.29%    MPKI:0.00
PC:29454     Total:435      MisBP:103   MisRate:23.68%    MPKI:0.00
PC:1221c     Total:380173      MisBP:123   MisRate:0.03%    MPKI:0.00
PC:130b6     Total:528539      MisBP:136   MisRate:0.03%    MPKI:0.00
PC:12d9c     Total:15926      MisBP:137   MisRate:0.86%    MPKI:0.00
PC:11f7a     Total:83695      MisBP:181   MisRate:0.22%    MPKI:0.00
PC:18cd8     Total:27868      MisBP:193   MisRate:0.69%    MPKI:0.00
PC:1211e     Total:325168      MisBP:206   MisRate:0.06%    MPKI:0.00
PC:18c62     Total:31151      MisBP:222   MisRate:0.71%    MPKI:0.00
PC:167e4     Total:1869      MisBP:231   MisRate:12.36%    MPKI:0.00
PC:167b8     Total:1699      MisBP:246   MisRate:14.48%    MPKI:0.00
PC:1207e     Total:89371      MisBP:268   MisRate:0.30%    MPKI:0.00
PC:18d84     Total:2387      MisBP:288   MisRate:12.07%    MPKI:0.00
PC:11e60     Total:88152      MisBP:308   MisRate:0.35%    MPKI:0.00
PC:120ce     Total:65814      MisBP:345   MisRate:0.52%    MPKI:0.00
PC:18cfe     Total:26310      MisBP:409   MisRate:1.55%    MPKI:0.00
PC:121ae     Total:68959      MisBP:424   MisRate:0.61%    MPKI:0.00
PC:18bce     Total:7655      MisBP:499   MisRate:6.52%    MPKI:0.00
PC:12178     Total:319718      MisBP:503   MisRate:0.16%    MPKI:0.00
PC:11e18     Total:4646      MisBP:549   MisRate:11.82%    MPKI:0.00
PC:18b5a     Total:5758      MisBP:599   MisRate:10.40%    MPKI:0.00
PC:18d68     Total:6721      MisBP:1126   MisRate:16.75%    MPKI:0.00
PC:18c88     Total:28545      MisBP:1208   MisRate:4.23%    MPKI:0.00
PC:11e7e     Total:44986      MisBP:1273   MisRate:2.83%    MPKI:0.00
PC:16740     Total:5811      MisBP:1405   MisRate:24.18%    MPKI:0.00
PC:165e6     Total:7565      MisBP:1521   MisRate:20.11%    MPKI:0.00
PC:14a5a     Total:187768      MisBP:1955   MisRate:1.04%    MPKI:0.01
PC:13086     Total:512273      MisBP:2004   MisRate:0.39%    MPKI:0.01
PC:16752     Total:10993      MisBP:2034   MisRate:18.50%    MPKI:0.01
PC:18c5a     Total:26461      MisBP:2306   MisRate:8.71%    MPKI:0.01
PC:12476     Total:16921      MisBP:2462   MisRate:14.55%    MPKI:0.01
PC:165f8     Total:30691      MisBP:2645   MisRate:8.62%    MPKI:0.01
PC:18cd0     Total:25643      MisBP:2945   MisRate:11.48%    MPKI:0.01
PC:123f8     Total:17141      MisBP:2958   MisRate:17.26%    MPKI:0.01
PC:18bec     Total:40224      MisBP:3125   MisRate:7.77%    MPKI:0.01
PC:12430     Total:15402      MisBP:3127   MisRate:20.30%    MPKI:0.01
PC:18dd0     Total:124320      MisBP:3343   MisRate:2.69%    MPKI:0.01
PC:11f64     Total:28940      MisBP:3491   MisRate:12.06%    MPKI:0.01
PC:123d8     Total:54350      MisBP:4417   MisRate:8.13%    MPKI:0.01
PC:12d8a     Total:45285      MisBP:4747   MisRate:10.48%    MPKI:0.02
PC:11f08     Total:31795      MisBP:4783   MisRate:15.04%    MPKI:0.02
PC:11e6a     Total:88110      MisBP:5257   MisRate:5.97%    MPKI:0.02
PC:124aa     Total:18520      MisBP:5277   MisRate:28.49%    MPKI:0.02
PC:12242     Total:42615      MisBP:5662   MisRate:13.29%    MPKI:0.02
PC:12418     Total:249062      MisBP:9601   MisRate:3.85%    MPKI:0.03
PC:12030     Total:1359973      MisBP:10295   MisRate:0.76%    MPKI:0.03
PC:12454     Total:196859      MisBP:11118   MisRate:5.65%    MPKI:0.04
PC:122f2     Total:367959      MisBP:11416   MisRate:3.10%    MPKI:0.04
PC:11ec8     Total:68155      MisBP:12292   MisRate:18.04%    MPKI:0.04
PC:130c2     Total:527081      MisBP:13821   MisRate:2.62%    MPKI:0.04
PC:1546e     Total:165115      MisBP:14309   MisRate:8.67%    MPKI:0.05
PC:15402     Total:186434      MisBP:14330   MisRate:7.69%    MPKI:0.05
PC:11ae6     Total:1306926      MisBP:14921   MisRate:1.14%    MPKI:0.05
PC:11aee     Total:1280772      MisBP:15057   MisRate:1.18%    MPKI:0.05
PC:1215e     Total:311734      MisBP:15928   MisRate:5.11%    MPKI:0.05
PC:1508e     Total:134507      MisBP:15931   MisRate:11.84%    MPKI:0.05
PC:12102     Total:312816      MisBP:16184   MisRate:5.17%    MPKI:0.05
PC:11ad0     Total:1362151      MisBP:16949   MisRate:1.24%    MPKI:0.05
PC:11ada     Total:1323740      MisBP:17396   MisRate:1.31%    MPKI:0.06
PC:11aba     Total:1428106      MisBP:18320   MisRate:1.28%    MPKI:0.06
PC:150d8     Total:139241      MisBP:18486   MisRate:13.28%    MPKI:0.06
PC:11ac4     Total:1383354      MisBP:19161   MisRate:1.39%    MPKI:0.06
PC:11aa4     Total:1485435      MisBP:19231   MisRate:1.29%    MPKI:0.06
PC:11f5c     Total:2312078      MisBP:20175   MisRate:0.87%    MPKI:0.07
PC:123ba     Total:233733      MisBP:21650   MisRate:9.26%    MPKI:0.07
PC:11aae     Total:1460790      MisBP:21704   MisRate:1.49%    MPKI:0.07
PC:11a8e     Total:1568453      MisBP:22359   MisRate:1.43%    MPKI:0.07
PC:150e2     Total:157760      MisBP:23113   MisRate:14.65%    MPKI:0.07
PC:11a20     Total:932501      MisBP:23627   MisRate:2.53%    MPKI:0.08
PC:11a28     Total:920881      MisBP:24881   MisRate:2.70%    MPKI:0.08
PC:1236c     Total:401638      MisBP:24911   MisRate:6.20%    MPKI:0.08
PC:11a98     Total:1535599      MisBP:25106   MisRate:1.63%    MPKI:0.08
PC:11a5e     Total:1818483      MisBP:25163   MisRate:1.38%    MPKI:0.08
PC:1234a     Total:289598      MisBP:26077   MisRate:9.00%    MPKI:0.08
PC:11a78     Total:1686205      MisBP:26314   MisRate:1.56%    MPKI:0.08
PC:11a04     Total:993577      MisBP:26419   MisRate:2.66%    MPKI:0.09
PC:123c4     Total:74025      MisBP:26724   MisRate:36.10%    MPKI:0.09
PC:122be     Total:365037      MisBP:29350   MisRate:8.04%    MPKI:0.09
PC:12314     Total:439262      MisBP:29910   MisRate:6.81%    MPKI:0.10
PC:11a3a     Total:2112571      MisBP:30548   MisRate:1.45%    MPKI:0.10
PC:11a82     Total:1640090      MisBP:31839   MisRate:1.94%    MPKI:0.10
PC:11a6c     Total:1785095      MisBP:34384   MisRate:1.93%    MPKI:0.11
PC:12250     Total:256371      MisBP:36623   MisRate:14.29%    MPKI:0.12
PC:119e4     Total:1234776      MisBP:41102   MisRate:3.33%    MPKI:0.13
PC:119f4     Total:1120653      MisBP:41115   MisRate:3.67%    MPKI:0.13
PC:119fc     Total:1088985      MisBP:43146   MisRate:3.96%    MPKI:0.14
PC:11a4a     Total:2041130      MisBP:48924   MisRate:2.40%    MPKI:0.16
PC:11a0c     Total:981027      MisBP:51966   MisRate:5.30%    MPKI:0.17
PC:150f4     Total:2435030      MisBP:66733   MisRate:2.74%    MPKI:0.22
PC:12014     Total:669035      MisBP:74881   MisRate:11.19%    MPKI:0.24
PC:14a2e     Total:382915      MisBP:78279   MisRate:20.44%    MPKI:0.25
PC:119dc     Total:1334838      MisBP:79262   MisRate:5.94%    MPKI:0.26
PC:12042     Total:861342      MisBP:82750   MisRate:9.61%    MPKI:0.27
PC:1508c     Total:825084      MisBP:99546   MisRate:12.06%    MPKI:0.32
PC:119ec     Total:1195621      MisBP:109175   MisRate:9.13%    MPKI:0.35
PC:119d4     Total:1392661      MisBP:116667   MisRate:8.38%    MPKI:0.38
PC:119b6     Total:1845395      MisBP:120805   MisRate:6.55%    MPKI:0.39
PC:1238c     Total:499927      MisBP:129141   MisRate:25.83%    MPKI:0.42
PC:119cc     Total:1537626      MisBP:135947   MisRate:8.84%    MPKI:0.44
PC:12334     Total:564824      MisBP:140706   MisRate:24.91%    MPKI:0.45
PC:122dc     Total:537720      MisBP:150235   MisRate:27.94%    MPKI:0.48
PC:11f40     Total:2128957      MisBP:167323   MisRate:7.86%    MPKI:0.54
PC:12040     Total:1417156      MisBP:175841   MisRate:12.41%    MPKI:0.57
Totfetch:481028447  TotInsts:310000001  TotMis : inf%   MPKI : 9.18
=============finish sim!!!!!!=============
Done running SimPoint!
