Global frequency set at 1000000000000 ticks per second
 Register [printBranch()] ExitCallback !!!!!!! 
gem5 Simulator System.  https://www.gem5.org
gem5 is copyrighted software; use the --copyright option for details.

gem5 version 22.0.0.2
gem5 compiled Sep  7 2022 00:42:18
gem5 started Sep  7 2022 04:08:37
gem5 executing on a100, pid 2777409
command line: /data/zxf/gem5/gem5-prof/build/ARM/gem5.fast --outdir=/data/zxf/checkpoint/spec2006/429.mcf/prof/mcf_ckp_7 /data/zxf/gem5/gem5-prof/configs/example/se.py --cpu-type O3CPU --cpu-clock 1GHz --num-cpu 1 --l1d-hwp-type=BOPPrefetcher --caches --l2cache --l1i_size 32kB --l1d_size 32kB --l2_size 1MB --l1i_assoc 8 --l1d_assoc 8 --l2_assoc 16 --cacheline_size 64 --mem-type DDR3_2133_8x8 --mem-size 16GB --restore-simpoint-checkpoint -r 7 --checkpoint-dir /data/zxf/checkpoint/spec2006/429.mcf/ckpt -c mcf_base.gcc41-64bit -o inp.in

info: Standard input is not a terminal, disabling listeners.
Resuming from /data/zxf/checkpoint/spec2006/429.mcf/ckpt/cpt.simpoint_06_inst_188690000000_weight_0.132549_interval_300000000_warmup_10000000
Resuming from SimPoint #6, start_inst:188690000000, weight:0.132549, interval:300000000, warmup:10000000
Switch at curTick count:10000
Switched CPUS @ tick 110469398312500
[(<m5.objects.ArmCPU.ArmAtomicSimpleCPU object at 0x7f967d5d4bb0>, <m5.objects.ArmCPU.ArmO3CPU object at 0x7f967d5ece20>)]
switching cpus



+++++++++++++++++++++++++zxf print simpoint+++++++++++++++++++++++++++
Warmed up! Dumping and resetting stats!


=============start sim!!!!!!=============
PC:11a4c     Total:12954      MisBP:0   MisRate:0.00%    MPKI:0.00
PC:118fc     Total:493257      MisBP:0   MisRate:0.00%    MPKI:0.00
PC:11900     Total:630      MisBP:0   MisRate:0.00%    MPKI:0.00
PC:11902     Total:630      MisBP:0   MisRate:0.00%    MPKI:0.00
PC:11904     Total:630      MisBP:0   MisRate:0.00%    MPKI:0.00
PC:11908     Total:630      MisBP:0   MisRate:0.00%    MPKI:0.00
PC:1190a     Total:630      MisBP:0   MisRate:0.00%    MPKI:0.00
PC:11a40     Total:12964      MisBP:0   MisRate:0.00%    MPKI:0.00
PC:11a44     Total:25921      MisBP:0   MisRate:0.00%    MPKI:0.00
PC:11a48     Total:12955      MisBP:0   MisRate:0.00%    MPKI:0.00
PC:118f8     Total:494166      MisBP:0   MisRate:0.00%    MPKI:0.00
PC:11a4e     Total:12942      MisBP:0   MisRate:0.00%    MPKI:0.00
PC:11a52     Total:10512      MisBP:0   MisRate:0.00%    MPKI:0.00
PC:11a54     Total:10512      MisBP:0   MisRate:0.00%    MPKI:0.00
PC:11a58     Total:10512      MisBP:0   MisRate:0.00%    MPKI:0.00
PC:11a5a     Total:10480      MisBP:0   MisRate:0.00%    MPKI:0.00
PC:11a5c     Total:10480      MisBP:0   MisRate:0.00%    MPKI:0.00
PC:11a5e     Total:10479      MisBP:0   MisRate:0.00%    MPKI:0.00
PC:11a62     Total:10479      MisBP:0   MisRate:0.00%    MPKI:0.00
PC:11a66     Total:10458      MisBP:0   MisRate:0.00%    MPKI:0.00
PC:11b74     Total:488656      MisBP:0   MisRate:0.00%    MPKI:0.00
PC:11936     Total:2      MisBP:0   MisRate:0.00%    MPKI:0.00
PC:11b38     Total:1785166      MisBP:0   MisRate:0.00%    MPKI:0.00
PC:11938     Total:361      MisBP:0   MisRate:0.00%    MPKI:0.00
PC:1193c     Total:351      MisBP:0   MisRate:0.00%    MPKI:0.00
PC:11704     Total:125171      MisBP:0   MisRate:0.00%    MPKI:0.00
PC:1170c     Total:12473      MisBP:0   MisRate:0.00%    MPKI:0.00
PC:10a02     Total:1824138      MisBP:0   MisRate:0.00%    MPKI:0.00
PC:11b56     Total:660315      MisBP:0   MisRate:0.00%    MPKI:0.00
PC:10a20     Total:7018055      MisBP:0   MisRate:0.00%    MPKI:0.00
PC:11a68     Total:10454      MisBP:0   MisRate:0.00%    MPKI:0.00
PC:1173a     Total:11612      MisBP:0   MisRate:0.00%    MPKI:0.00
PC:11b7c     Total:227461      MisBP:0   MisRate:0.00%    MPKI:0.00
PC:11742     Total:541      MisBP:0   MisRate:0.00%    MPKI:0.00
PC:10a2c     Total:1792796      MisBP:0   MisRate:0.00%    MPKI:0.00
PC:11b80     Total:1496236      MisBP:0   MisRate:0.00%    MPKI:0.00
PC:11746     Total:541      MisBP:0   MisRate:0.00%    MPKI:0.00
PC:1174c     Total:10833      MisBP:0   MisRate:0.00%    MPKI:0.00
PC:118f6     Total:495840      MisBP:0   MisRate:0.00%    MPKI:0.00
PC:11ba0     Total:11434      MisBP:0   MisRate:0.00%    MPKI:0.00
PC:11b98     Total:11474      MisBP:0   MisRate:0.00%    MPKI:0.00
PC:11760     Total:5303228      MisBP:0   MisRate:0.00%    MPKI:0.00
PC:11762     Total:5288632      MisBP:0   MisRate:0.00%    MPKI:0.00
PC:11b9c     Total:11444      MisBP:0   MisRate:0.00%    MPKI:0.00
PC:11764     Total:5285476      MisBP:0   MisRate:0.00%    MPKI:0.00
PC:10a4a     Total:505      MisBP:0   MisRate:0.00%    MPKI:0.00
PC:11b9e     Total:11435      MisBP:0   MisRate:0.00%    MPKI:0.00
PC:11766     Total:5280309      MisBP:0   MisRate:0.00%    MPKI:0.00
PC:10a4c     Total:3517      MisBP:0   MisRate:0.00%    MPKI:0.00
PC:10a44     Total:1584470      MisBP:0   MisRate:0.00%    MPKI:0.00
PC:1176a     Total:335253      MisBP:0   MisRate:0.00%    MPKI:0.00
PC:10a50     Total:1      MisBP:0   MisRate:0.00%    MPKI:0.00
PC:11ba4     Total:11385      MisBP:0   MisRate:0.00%    MPKI:0.00
PC:11ba6     Total:11376      MisBP:0   MisRate:0.00%    MPKI:0.00
PC:1176e     Total:3126412      MisBP:0   MisRate:0.00%    MPKI:0.00
PC:10a54     Total:1      MisBP:0   MisRate:0.00%    MPKI:0.00
PC:11ba8     Total:11368      MisBP:0   MisRate:0.00%    MPKI:0.00
PC:11770     Total:3112239      MisBP:0   MisRate:0.00%    MPKI:0.00
PC:10a58     Total:4      MisBP:0   MisRate:0.00%    MPKI:0.00
PC:11716     Total:12287      MisBP:0   MisRate:0.00%    MPKI:0.00
PC:11a6c     Total:10453      MisBP:0   MisRate:0.00%    MPKI:0.00
PC:11a6e     Total:10452      MisBP:0   MisRate:0.00%    MPKI:0.00
PC:11a72     Total:10402      MisBP:0   MisRate:0.00%    MPKI:0.00
PC:11a76     Total:10401      MisBP:0   MisRate:0.00%    MPKI:0.00
PC:11a7a     Total:62      MisBP:0   MisRate:0.00%    MPKI:0.00
PC:11a7c     Total:62      MisBP:0   MisRate:0.00%    MPKI:0.00
PC:11708     Total:12304      MisBP:0   MisRate:0.00%    MPKI:0.00
PC:10a5a     Total:1      MisBP:0   MisRate:0.00%    MPKI:0.00
PC:11712     Total:12558      MisBP:0   MisRate:0.00%    MPKI:0.00
PC:11b34     Total:3571302      MisBP:0   MisRate:0.00%    MPKI:0.00
PC:11726     Total:12377      MisBP:0   MisRate:0.00%    MPKI:0.00
PC:11738     Total:11613      MisBP:0   MisRate:0.00%    MPKI:0.00
PC:11754     Total:10821      MisBP:0   MisRate:0.00%    MPKI:0.00
PC:11758     Total:10812      MisBP:0   MisRate:0.00%    MPKI:0.00
PC:1175a     Total:10780      MisBP:0   MisRate:0.00%    MPKI:0.00
PC:11b94     Total:11475      MisBP:0   MisRate:0.00%    MPKI:0.00
PC:1175c     Total:5492988      MisBP:0   MisRate:0.00%    MPKI:0.00
PC:1175e     Total:5474452      MisBP:0   MisRate:0.00%    MPKI:0.00
PC:11c8a     Total:25370      MisBP:0   MisRate:0.00%    MPKI:0.00
PC:11c86     Total:25374      MisBP:0   MisRate:0.00%    MPKI:0.00
PC:1184c     Total:33      MisBP:0   MisRate:0.00%    MPKI:0.00
PC:10a34     Total:21259421      MisBP:0   MisRate:0.00%    MPKI:0.00
PC:11b88     Total:1494907      MisBP:0   MisRate:0.00%    MPKI:0.00
PC:11c88     Total:25371      MisBP:0   MisRate:0.00%    MPKI:0.00
PC:1184e     Total:33      MisBP:0   MisRate:0.00%    MPKI:0.00
PC:10a36     Total:21054709      MisBP:0   MisRate:0.00%    MPKI:0.00
PC:11b8a     Total:1494567      MisBP:0   MisRate:0.00%    MPKI:0.00
PC:11750     Total:10833      MisBP:0   MisRate:0.00%    MPKI:0.00
PC:11b84     Total:1495634      MisBP:0   MisRate:0.00%    MPKI:0.00
PC:11850     Total:29      MisBP:0   MisRate:0.00%    MPKI:0.00
PC:11c8e     Total:25369      MisBP:0   MisRate:0.00%    MPKI:0.00
PC:11854     Total:29      MisBP:0   MisRate:0.00%    MPKI:0.00
PC:11c90     Total:25365      MisBP:0   MisRate:0.00%    MPKI:0.00
PC:11856     Total:29      MisBP:0   MisRate:0.00%    MPKI:0.00
PC:1188e     Total:63042      MisBP:0   MisRate:0.00%    MPKI:0.00
PC:11c92     Total:25364      MisBP:0   MisRate:0.00%    MPKI:0.00
PC:1185a     Total:156      MisBP:0   MisRate:0.00%    MPKI:0.00
PC:11b00     Total:1983847      MisBP:0   MisRate:0.00%    MPKI:0.00
PC:11b7e     Total:227459      MisBP:0   MisRate:0.00%    MPKI:0.00
PC:10a0a     Total:1797466      MisBP:0   MisRate:0.00%    MPKI:0.00
PC:11b5e     Total:1514567      MisBP:0   MisRate:0.00%    MPKI:0.00
PC:11724     Total:12377      MisBP:0   MisRate:0.00%    MPKI:0.00
PC:11c96     Total:30981      MisBP:0   MisRate:0.00%    MPKI:0.00
PC:11c78     Total:25399      MisBP:0   MisRate:0.00%    MPKI:0.00
PC:10a26     Total:7004087      MisBP:0   MisRate:0.00%    MPKI:0.00
PC:11c7c     Total:25397      MisBP:0   MisRate:0.00%    MPKI:0.00
PC:11842     Total:32      MisBP:0   MisRate:0.00%    MPKI:0.00
PC:10a2a     Total:1795474      MisBP:0   MisRate:0.00%    MPKI:0.00
PC:11b04     Total:218535      MisBP:0   MisRate:0.00%    MPKI:0.00
PC:11c80     Total:25376      MisBP:0   MisRate:0.00%    MPKI:0.00
PC:11846     Total:32      MisBP:0   MisRate:0.00%    MPKI:0.00
PC:11ad4     Total:1      MisBP:0   MisRate:0.00%    MPKI:0.00
PC:11b82     Total:1495959      MisBP:0   MisRate:0.00%    MPKI:0.00
PC:11748     Total:10315      MisBP:0   MisRate:0.00%    MPKI:0.00
PC:11c82     Total:25374      MisBP:0   MisRate:0.00%    MPKI:0.00
PC:11848     Total:32      MisBP:0   MisRate:0.00%    MPKI:0.00
PC:10a30     Total:20475552      MisBP:0   MisRate:0.00%    MPKI:0.00
PC:11b22     Total:430948      MisBP:0   MisRate:0.00%    MPKI:0.00
PC:118e2     Total:1292996      MisBP:0   MisRate:0.00%    MPKI:0.00
PC:118e6     Total:14347      MisBP:0   MisRate:0.00%    MPKI:0.00
PC:118ea     Total:71422      MisBP:0   MisRate:0.00%    MPKI:0.00
PC:118f0     Total:501272      MisBP:0   MisRate:0.00%    MPKI:0.00
PC:118f2     Total:500237      MisBP:0   MisRate:0.00%    MPKI:0.00
PC:11cf6     Total:1      MisBP:0   MisRate:0.00%    MPKI:0.00
PC:11b1a     Total:430983      MisBP:0   MisRate:0.00%    MPKI:0.00
PC:11b1e     Total:430964      MisBP:0   MisRate:0.00%    MPKI:0.00
PC:11920     Total:16582      MisBP:0   MisRate:0.00%    MPKI:0.00
PC:11ce0     Total:1      MisBP:0   MisRate:0.00%    MPKI:0.00
PC:11b26     Total:430928      MisBP:0   MisRate:0.00%    MPKI:0.00
PC:11928     Total:16361      MisBP:0   MisRate:0.00%    MPKI:0.00
PC:11b2a     Total:430915      MisBP:0   MisRate:0.00%    MPKI:0.00
PC:1192a     Total:482128      MisBP:0   MisRate:0.00%    MPKI:0.00
PC:11b2c     Total:430887      MisBP:0   MisRate:0.00%    MPKI:0.00
PC:1192c     Total:480585      MisBP:0   MisRate:0.00%    MPKI:0.00
PC:11b2e     Total:403723      MisBP:0   MisRate:0.00%    MPKI:0.00
PC:11930     Total:568780      MisBP:0   MisRate:0.00%    MPKI:0.00
PC:11932     Total:2      MisBP:0   MisRate:0.00%    MPKI:0.00
PC:11b16     Total:443084      MisBP:0   MisRate:0.00%    MPKI:0.00
PC:11b08     Total:218533      MisBP:0   MisRate:0.00%    MPKI:0.00
PC:11b0c     Total:218528      MisBP:0   MisRate:0.00%    MPKI:0.00
PC:1190c     Total:606263      MisBP:0   MisRate:0.00%    MPKI:0.00
PC:11b0e     Total:218512      MisBP:0   MisRate:0.00%    MPKI:0.00
PC:1190e     Total:605999      MisBP:0   MisRate:0.00%    MPKI:0.00
PC:11b10     Total:218508      MisBP:0   MisRate:0.00%    MPKI:0.00
PC:11910     Total:604517      MisBP:0   MisRate:0.00%    MPKI:0.00
PC:11b12     Total:443090      MisBP:0   MisRate:0.00%    MPKI:0.00
PC:11914     Total:601928      MisBP:0   MisRate:0.00%    MPKI:0.00
PC:11bac     Total:11368      MisBP:0   MisRate:0.00%    MPKI:0.00
PC:118ce     Total:1400924      MisBP:0   MisRate:0.00%    MPKI:0.00
PC:118d0     Total:1398083      MisBP:0   MisRate:0.00%    MPKI:0.00
PC:11cd4     Total:12007      MisBP:0   MisRate:0.00%    MPKI:0.00
PC:118d4     Total:1381450      MisBP:0   MisRate:0.00%    MPKI:0.00
PC:118d8     Total:1367570      MisBP:0   MisRate:0.00%    MPKI:0.00
PC:11cdc     Total:12005      MisBP:0   MisRate:0.00%    MPKI:0.00
PC:118da     Total:1350803      MisBP:0   MisRate:0.00%    MPKI:0.00
PC:118dc     Total:1342724      MisBP:0   MisRate:0.00%    MPKI:0.00
PC:11c2a     Total:9901      MisBP:0   MisRate:0.00%    MPKI:0.00
PC:11c1c     Total:9890      MisBP:0   MisRate:0.00%    MPKI:0.00
PC:11c20     Total:9888      MisBP:0   MisRate:0.00%    MPKI:0.00
PC:117e8     Total:3389      MisBP:0   MisRate:0.00%    MPKI:0.00
PC:117ea     Total:3307      MisBP:0   MisRate:0.00%    MPKI:0.00
PC:11c24     Total:9888      MisBP:0   MisRate:0.00%    MPKI:0.00
PC:117ec     Total:3299      MisBP:0   MisRate:0.00%    MPKI:0.00
PC:11c26     Total:9901      MisBP:0   MisRate:0.00%    MPKI:0.00
PC:117ee     Total:3271      MisBP:0   MisRate:0.00%    MPKI:0.00
PC:117f0     Total:3268      MisBP:0   MisRate:0.00%    MPKI:0.00
PC:117e2     Total:28774      MisBP:0   MisRate:0.00%    MPKI:0.00
PC:11838     Total:94      MisBP:0   MisRate:0.00%    MPKI:0.00
PC:1185e     Total:21436      MisBP:0   MisRate:0.00%    MPKI:0.00
PC:11874     Total:518352      MisBP:0   MisRate:0.00%    MPKI:0.00
PC:11878     Total:515167      MisBP:0   MisRate:0.00%    MPKI:0.00
PC:109dc     Total:118      MisBP:0   MisRate:0.00%    MPKI:0.00
PC:11b32     Total:403708      MisBP:0   MisRate:0.00%    MPKI:0.00
PC:109de     Total:59      MisBP:0   MisRate:0.00%    MPKI:0.00
PC:109e2     Total:59      MisBP:0   MisRate:0.00%    MPKI:0.00
PC:11b3a     Total:1784779      MisBP:0   MisRate:0.00%    MPKI:0.00
PC:117d2     Total:29709      MisBP:0   MisRate:0.00%    MPKI:0.00
PC:11bfc     Total:458971      MisBP:0   MisRate:0.00%    MPKI:0.00
PC:117c4     Total:29766      MisBP:0   MisRate:0.00%    MPKI:0.00
PC:117c6     Total:29761      MisBP:0   MisRate:0.00%    MPKI:0.00
PC:11c00     Total:455054      MisBP:0   MisRate:0.00%    MPKI:0.00
PC:117c8     Total:29745      MisBP:0   MisRate:0.00%    MPKI:0.00
PC:11c02     Total:454811      MisBP:0   MisRate:0.00%    MPKI:0.00
PC:117cc     Total:29728      MisBP:0   MisRate:0.00%    MPKI:0.00
PC:117d0     Total:29718      MisBP:0   MisRate:0.00%    MPKI:0.00
PC:11c0a     Total:454286      MisBP:0   MisRate:0.00%    MPKI:0.00
PC:109e6     Total:59      MisBP:0   MisRate:0.00%    MPKI:0.00
PC:117d6     Total:28821      MisBP:0   MisRate:0.00%    MPKI:0.00
PC:117d8     Total:28810      MisBP:0   MisRate:0.00%    MPKI:0.00
PC:11c12     Total:9894      MisBP:0   MisRate:0.00%    MPKI:0.00
PC:117da     Total:28788      MisBP:0   MisRate:0.00%    MPKI:0.00
PC:11c14     Total:9892      MisBP:0   MisRate:0.00%    MPKI:0.00
PC:117dc     Total:28782      MisBP:0   MisRate:0.00%    MPKI:0.00
PC:117de     Total:28808      MisBP:0   MisRate:0.00%    MPKI:0.00
PC:11c18     Total:9892      MisBP:0   MisRate:0.00%    MPKI:0.00
PC:11bf0     Total:459263      MisBP:0   MisRate:0.00%    MPKI:0.00
PC:1199e     Total:11815      MisBP:0   MisRate:0.00%    MPKI:0.00
PC:119a0     Total:11813      MisBP:0   MisRate:0.00%    MPKI:0.00
PC:11b90     Total:115581      MisBP:0   MisRate:0.00%    MPKI:0.00
PC:10a66     Total:1      MisBP:0   MisRate:0.00%    MPKI:0.00
PC:11bba     Total:11145      MisBP:0   MisRate:0.00%    MPKI:0.00
PC:10a6a     Total:1      MisBP:0   MisRate:0.00%    MPKI:0.00
PC:11bbe     Total:11047      MisBP:0   MisRate:0.00%    MPKI:0.00
PC:11bd2     Total:930429      MisBP:0   MisRate:0.00%    MPKI:0.00
PC:11bda     Total:464413      MisBP:0   MisRate:0.00%    MPKI:0.00
PC:1199c     Total:11821      MisBP:0   MisRate:0.00%    MPKI:0.00
PC:11c04     Total:454722      MisBP:0   MisRate:0.00%    MPKI:0.00
PC:11c08     Total:454708      MisBP:0   MisRate:0.00%    MPKI:0.00
PC:11c0e     Total:9894      MisBP:0   MisRate:0.00%    MPKI:0.00
PC:11840     Total:32      MisBP:0   MisRate:0.00%    MPKI:0.00
PC:11844     Total:32      MisBP:0   MisRate:0.00%    MPKI:0.00
PC:1184a     Total:33      MisBP:0   MisRate:0.00%    MPKI:0.00
PC:11852     Total:29      MisBP:0   MisRate:0.00%    MPKI:0.00
PC:11ba2     Total:11428      MisBP:0   MisRate:0.00%    MPKI:0.00
PC:10a4e     Total:3513      MisBP:0   MisRate:0.00%    MPKI:0.00
PC:11b4a     Total:88086      MisBP:0   MisRate:0.00%    MPKI:0.00
PC:109ea     Total:58      MisBP:0   MisRate:0.00%    MPKI:0.00
PC:11b40     Total:1491160      MisBP:0   MisRate:0.00%    MPKI:0.00
PC:109ec     Total:58      MisBP:0   MisRate:0.00%    MPKI:0.00
PC:109ee     Total:58      MisBP:0   MisRate:0.00%    MPKI:0.00
PC:11b44     Total:1490962      MisBP:0   MisRate:0.00%    MPKI:0.00
PC:109f0     Total:58      MisBP:0   MisRate:0.00%    MPKI:0.00
PC:11b46     Total:1490726      MisBP:0   MisRate:0.00%    MPKI:0.00
PC:109f2     Total:58      MisBP:0   MisRate:0.00%    MPKI:0.00
PC:109f4     Total:58      MisBP:0   MisRate:0.00%    MPKI:0.00
PC:117c2     Total:29745      MisBP:0   MisRate:0.00%    MPKI:0.00
PC:109f6     Total:58      MisBP:0   MisRate:0.00%    MPKI:0.00
PC:109f8     Total:58      MisBP:0   MisRate:0.00%    MPKI:0.00
PC:11b4e     Total:1330896      MisBP:0   MisRate:0.00%    MPKI:0.00
PC:109fc     Total:3569      MisBP:0   MisRate:0.00%    MPKI:0.00
PC:11b52     Total:664411      MisBP:0   MisRate:0.00%    MPKI:0.00
PC:109fe     Total:1851253      MisBP:0   MisRate:0.00%    MPKI:0.00
PC:11998     Total:11844      MisBP:0   MisRate:0.00%    MPKI:0.00
PC:1199a     Total:11824      MisBP:0   MisRate:0.00%    MPKI:0.00
PC:11792     Total:17919      MisBP:0   MisRate:0.00%    MPKI:0.00
PC:11bc4     Total:1358      MisBP:0   MisRate:0.00%    MPKI:0.00
PC:1178c     Total:18030      MisBP:0   MisRate:0.00%    MPKI:0.00
PC:11bc6     Total:1356      MisBP:0   MisRate:0.00%    MPKI:0.00
PC:1178e     Total:18011      MisBP:0   MisRate:0.00%    MPKI:0.00
PC:10a74     Total:1      MisBP:0   MisRate:0.00%    MPKI:0.00
PC:11bc8     Total:6436      MisBP:0   MisRate:0.00%    MPKI:0.00
PC:11790     Total:18004      MisBP:0   MisRate:0.00%    MPKI:0.00
PC:10a76     Total:1      MisBP:0   MisRate:0.00%    MPKI:0.00
PC:11bca     Total:6425      MisBP:0   MisRate:0.00%    MPKI:0.00
PC:10a70     Total:1      MisBP:0   MisRate:0.00%    MPKI:0.00
PC:10a78     Total:1      MisBP:0   MisRate:0.00%    MPKI:0.00
PC:11794     Total:17904      MisBP:0   MisRate:0.00%    MPKI:0.00
PC:11bce     Total:466192      MisBP:0   MisRate:0.00%    MPKI:0.00
PC:11796     Total:17867      MisBP:0   MisRate:0.00%    MPKI:0.00
PC:10a7c     Total:1      MisBP:0   MisRate:0.00%    MPKI:0.00
PC:1179a     Total:18008      MisBP:0   MisRate:0.00%    MPKI:0.00
PC:1179c     Total:17994      MisBP:0   MisRate:0.00%    MPKI:0.00
PC:11bd6     Total:464746      MisBP:0   MisRate:0.00%    MPKI:0.00
PC:1179e     Total:17452      MisBP:0   MisRate:0.00%    MPKI:0.00
PC:11bb6     Total:11161      MisBP:0   MisRate:0.00%    MPKI:0.00
PC:11774     Total:2836163      MisBP:0   MisRate:0.00%    MPKI:0.00
PC:11776     Total:2830363      MisBP:0   MisRate:0.00%    MPKI:0.00
PC:10a5c     Total:1      MisBP:0   MisRate:0.00%    MPKI:0.00
PC:11bb0     Total:11171      MisBP:0   MisRate:0.00%    MPKI:0.00
PC:10a5e     Total:1      MisBP:0   MisRate:0.00%    MPKI:0.00
PC:11bb2     Total:11163      MisBP:0   MisRate:0.00%    MPKI:0.00
PC:1177a     Total:18898      MisBP:0   MisRate:0.00%    MPKI:0.00
PC:1177c     Total:18880      MisBP:0   MisRate:0.00%    MPKI:0.00
PC:10a62     Total:1      MisBP:0   MisRate:0.00%    MPKI:0.00
PC:11bd8     Total:464629      MisBP:0   MisRate:0.00%    MPKI:0.00
PC:1177e     Total:18067      MisBP:0   MisRate:0.00%    MPKI:0.00
PC:11782     Total:18100      MisBP:0   MisRate:0.00%    MPKI:0.00
PC:11786     Total:18066      MisBP:0   MisRate:0.00%    MPKI:0.00
PC:10a6c     Total:1      MisBP:0   MisRate:0.00%    MPKI:0.00
PC:11788     Total:18054      MisBP:0   MisRate:0.00%    MPKI:0.00
PC:10a6e     Total:1      MisBP:0   MisRate:0.00%    MPKI:0.00
PC:11bc2     Total:1358      MisBP:0   MisRate:0.00%    MPKI:0.00
PC:1178a     Total:18038      MisBP:0   MisRate:0.00%    MPKI:0.00
PC:11816     Total:24039      MisBP:0   MisRate:0.00%    MPKI:0.00
PC:11c2e     Total:9901      MisBP:0   MisRate:0.00%    MPKI:0.00
PC:117f6     Total:17793      MisBP:0   MisRate:0.00%    MPKI:0.00
PC:11c30     Total:34527      MisBP:0   MisRate:0.00%    MPKI:0.00
PC:117f8     Total:17770      MisBP:0   MisRate:0.00%    MPKI:0.00
PC:117fa     Total:25424      MisBP:0   MisRate:0.00%    MPKI:0.00
PC:11c34     Total:34527      MisBP:0   MisRate:0.00%    MPKI:0.00
PC:117fe     Total:24808      MisBP:0   MisRate:0.00%    MPKI:0.00
PC:11c38     Total:26      MisBP:0   MisRate:0.00%    MPKI:0.00
PC:1180a     Total:24065      MisBP:0   MisRate:0.00%    MPKI:0.00
PC:117f2     Total:20730      MisBP:0   MisRate:0.00%    MPKI:0.00
PC:117b8     Total:30713      MisBP:0   MisRate:0.00%    MPKI:0.00
PC:11bf2     Total:459156      MisBP:0   MisRate:0.00%    MPKI:0.00
PC:117ba     Total:30694      MisBP:0   MisRate:0.00%    MPKI:0.00
PC:117bc     Total:30667      MisBP:0   MisRate:0.00%    MPKI:0.00
PC:11bf6     Total:459115      MisBP:0   MisRate:0.00%    MPKI:0.00
PC:117be     Total:30621      MisBP:0   MisRate:0.00%    MPKI:0.00
PC:117c0     Total:29760      MisBP:0   MisRate:0.00%    MPKI:0.00
PC:11bfa     Total:458992      MisBP:0   MisRate:0.00%    MPKI:0.00
PC:117ac     Total:31061      MisBP:0   MisRate:0.00%    MPKI:0.00
PC:117a2     Total:27617      MisBP:0   MisRate:0.00%    MPKI:0.00
PC:11bdc     Total:464160      MisBP:0   MisRate:0.00%    MPKI:0.00
PC:117a4     Total:27612      MisBP:0   MisRate:0.00%    MPKI:0.00
PC:11bde     Total:463880      MisBP:0   MisRate:0.00%    MPKI:0.00
PC:117a6     Total:27603      MisBP:0   MisRate:0.00%    MPKI:0.00
PC:11be0     Total:463831      MisBP:0   MisRate:0.00%    MPKI:0.00
PC:11be2     Total:463682      MisBP:0   MisRate:0.00%    MPKI:0.00
PC:117aa     Total:24697      MisBP:0   MisRate:0.00%    MPKI:0.00
PC:11be4     Total:463528      MisBP:0   MisRate:0.00%    MPKI:0.00
PC:10a2e     Total:20837733      MisBP:0   MisRate:0.00%    MPKI:0.00
PC:11be6     Total:463372      MisBP:0   MisRate:0.00%    MPKI:0.00
PC:117ae     Total:31055      MisBP:0   MisRate:0.00%    MPKI:0.00
PC:117b0     Total:30893      MisBP:0   MisRate:0.00%    MPKI:0.00
PC:11bea     Total:459599      MisBP:0   MisRate:0.00%    MPKI:0.00
PC:117b2     Total:30729      MisBP:0   MisRate:0.00%    MPKI:0.00
PC:11bec     Total:459545      MisBP:0   MisRate:0.00%    MPKI:0.00
PC:117b4     Total:30720      MisBP:0   MisRate:0.00%    MPKI:0.00
PC:11bee     Total:459277      MisBP:0   MisRate:0.00%    MPKI:0.00
PC:118aa     Total:1217543      MisBP:0   MisRate:0.00%    MPKI:0.00
PC:119fa     Total:13854      MisBP:0   MisRate:0.00%    MPKI:0.00
PC:119f8     Total:13865      MisBP:0   MisRate:0.00%    MPKI:0.00
PC:119f6     Total:13870      MisBP:0   MisRate:0.00%    MPKI:0.00
PC:118e8     Total:14342      MisBP:0   MisRate:0.00%    MPKI:0.00
PC:118de     Total:1309242      MisBP:0   MisRate:0.00%    MPKI:0.00
PC:118d6     Total:1377986      MisBP:0   MisRate:0.00%    MPKI:0.00
PC:118d2     Total:1383596      MisBP:0   MisRate:0.00%    MPKI:0.00
PC:118c4     Total:3381251      MisBP:0   MisRate:0.00%    MPKI:0.00
PC:118ae     Total:1204538      MisBP:0   MisRate:0.00%    MPKI:0.00
PC:119fc     Total:13849      MisBP:0   MisRate:0.00%    MPKI:0.00
PC:11ce4     Total:1      MisBP:0   MisRate:0.00%    MPKI:0.00
PC:1189c     Total:8954      MisBP:0   MisRate:0.00%    MPKI:0.00
PC:11894     Total:8959      MisBP:0   MisRate:0.00%    MPKI:0.00
PC:119f2     Total:13897      MisBP:0   MisRate:0.00%    MPKI:0.00
PC:119f0     Total:13825      MisBP:0   MisRate:0.00%    MPKI:0.00
PC:119ee     Total:557      MisBP:0   MisRate:0.00%    MPKI:0.00
PC:119ec     Total:557      MisBP:0   MisRate:0.00%    MPKI:0.00
PC:119ea     Total:557      MisBP:0   MisRate:0.00%    MPKI:0.00
PC:119e6     Total:13796      MisBP:0   MisRate:0.00%    MPKI:0.00
PC:11a1c     Total:13446      MisBP:0   MisRate:0.00%    MPKI:0.00
PC:11a36     Total:13264      MisBP:0   MisRate:0.00%    MPKI:0.00
PC:11a32     Total:13275      MisBP:0   MisRate:0.00%    MPKI:0.00
PC:11a30     Total:13350      MisBP:0   MisRate:0.00%    MPKI:0.00
PC:11a2e     Total:13352      MisBP:0   MisRate:0.00%    MPKI:0.00
PC:11a2a     Total:13342      MisBP:0   MisRate:0.00%    MPKI:0.00
PC:11a28     Total:13368      MisBP:0   MisRate:0.00%    MPKI:0.00
PC:11a24     Total:13399      MisBP:0   MisRate:0.00%    MPKI:0.00
PC:11a22     Total:13410      MisBP:0   MisRate:0.00%    MPKI:0.00
PC:11a20     Total:13423      MisBP:0   MisRate:0.00%    MPKI:0.00
PC:119e2     Total:14015      MisBP:0   MisRate:0.00%    MPKI:0.00
PC:11a1a     Total:13536      MisBP:0   MisRate:0.00%    MPKI:0.00
PC:11a18     Total:13537      MisBP:0   MisRate:0.00%    MPKI:0.00
PC:11a14     Total:13543      MisBP:0   MisRate:0.00%    MPKI:0.00
PC:11a10     Total:13545      MisBP:0   MisRate:0.00%    MPKI:0.00
PC:11a0c     Total:13561      MisBP:0   MisRate:0.00%    MPKI:0.00
PC:11a08     Total:13572      MisBP:0   MisRate:0.00%    MPKI:0.00
PC:11a04     Total:13581      MisBP:0   MisRate:0.00%    MPKI:0.00
PC:11a00     Total:13644      MisBP:0   MisRate:0.00%    MPKI:0.00
PC:11cfa     Total:1      MisBP:0   MisRate:0.00%    MPKI:0.00
PC:11822     Total:89      MisBP:0   MisRate:0.00%    MPKI:0.00
PC:119b2     Total:32885      MisBP:0   MisRate:0.00%    MPKI:0.00
PC:119b0     Total:32807      MisBP:0   MisRate:0.00%    MPKI:0.00
PC:119ac     Total:32807      MisBP:0   MisRate:0.00%    MPKI:0.00
PC:119a8     Total:32808      MisBP:0   MisRate:0.00%    MPKI:0.00
PC:119a6     Total:32808      MisBP:0   MisRate:0.00%    MPKI:0.00
PC:119a4     Total:32808      MisBP:0   MisRate:0.00%    MPKI:0.00
PC:11b8c     Total:2130562      MisBP:0   MisRate:0.00%    MPKI:0.00
PC:11752     Total:10821      MisBP:0   MisRate:0.00%    MPKI:0.00
PC:118c6     Total:3376919      MisBP:0   MisRate:0.00%    MPKI:0.00
PC:119b4     Total:32884      MisBP:0   MisRate:0.00%    MPKI:0.00
PC:118c2     Total:3390386      MisBP:0   MisRate:0.00%    MPKI:0.00
PC:11cfc     Total:1      MisBP:0   MisRate:0.00%    MPKI:0.00
PC:11cc6     Total:66556      MisBP:0   MisRate:0.00%    MPKI:0.00
PC:1188c     Total:9012      MisBP:0   MisRate:0.00%    MPKI:0.00
PC:118be     Total:2208325      MisBP:0   MisRate:0.00%    MPKI:0.00
PC:11cc2     Total:66556      MisBP:0   MisRate:0.00%    MPKI:0.00
PC:11812     Total:24041      MisBP:0   MisRate:0.00%    MPKI:0.00
PC:11c4a     Total:8763294      MisBP:0   MisRate:0.00%    MPKI:0.00
PC:11810     Total:24042      MisBP:0   MisRate:0.00%    MPKI:0.00
PC:119ca     Total:31879      MisBP:0   MisRate:0.00%    MPKI:0.00
PC:119e0     Total:14025      MisBP:0   MisRate:0.00%    MPKI:0.00
PC:119dc     Total:9549      MisBP:0   MisRate:0.00%    MPKI:0.00
PC:119da     Total:9552      MisBP:0   MisRate:0.00%    MPKI:0.00
PC:119d8     Total:9554      MisBP:0   MisRate:0.00%    MPKI:0.00
PC:119d6     Total:9556      MisBP:0   MisRate:0.00%    MPKI:0.00
PC:119d2     Total:19127      MisBP:0   MisRate:0.00%    MPKI:0.00
PC:119d0     Total:31875      MisBP:0   MisRate:0.00%    MPKI:0.00
PC:119ce     Total:31877      MisBP:0   MisRate:0.00%    MPKI:0.00
PC:119cc     Total:31879      MisBP:0   MisRate:0.00%    MPKI:0.00
PC:11a3a     Total:13256      MisBP:0   MisRate:0.00%    MPKI:0.00
PC:119c8     Total:31880      MisBP:0   MisRate:0.00%    MPKI:0.00
PC:119c6     Total:31880      MisBP:0   MisRate:0.00%    MPKI:0.00
PC:119c4     Total:31880      MisBP:0   MisRate:0.00%    MPKI:0.00
PC:119c0     Total:31880      MisBP:0   MisRate:0.00%    MPKI:0.00
PC:119be     Total:32418      MisBP:0   MisRate:0.00%    MPKI:0.00
PC:119bc     Total:32418      MisBP:0   MisRate:0.00%    MPKI:0.00
PC:119b8     Total:32418      MisBP:0   MisRate:0.00%    MPKI:0.00
PC:119b6     Total:32884      MisBP:0   MisRate:0.00%    MPKI:0.00
PC:11946     Total:294      MisBP:0   MisRate:0.00%    MPKI:0.00
PC:11958     Total:229      MisBP:0   MisRate:0.00%    MPKI:0.00
PC:11956     Total:229      MisBP:0   MisRate:0.00%    MPKI:0.00
PC:11954     Total:229      MisBP:0   MisRate:0.00%    MPKI:0.00
PC:11952     Total:231      MisBP:0   MisRate:0.00%    MPKI:0.00
PC:11950     Total:231      MisBP:0   MisRate:0.00%    MPKI:0.00
PC:1194e     Total:289      MisBP:0   MisRate:0.00%    MPKI:0.00
PC:1194c     Total:293      MisBP:0   MisRate:0.00%    MPKI:0.00
PC:1194a     Total:294      MisBP:0   MisRate:0.00%    MPKI:0.00
PC:11948     Total:294      MisBP:0   MisRate:0.00%    MPKI:0.00
PC:1195a     Total:229      MisBP:0   MisRate:0.00%    MPKI:0.00
PC:11944     Total:295      MisBP:0   MisRate:0.00%    MPKI:0.00
PC:11942     Total:300      MisBP:0   MisRate:0.00%    MPKI:0.00
PC:11940     Total:300      MisBP:0   MisRate:0.00%    MPKI:0.00
PC:11abc     Total:2      MisBP:0   MisRate:0.00%    MPKI:0.00
PC:11ab8     Total:2      MisBP:0   MisRate:0.00%    MPKI:0.00
PC:11ab6     Total:2      MisBP:0   MisRate:0.00%    MPKI:0.00
PC:11ab4     Total:70      MisBP:0   MisRate:0.00%    MPKI:0.00
PC:11ab0     Total:369      MisBP:0   MisRate:0.00%    MPKI:0.00
PC:11aae     Total:369      MisBP:0   MisRate:0.00%    MPKI:0.00
PC:1196c     Total:188      MisBP:0   MisRate:0.00%    MPKI:0.00
PC:11ad2     Total:1      MisBP:0   MisRate:0.00%    MPKI:0.00
PC:11ace     Total:1      MisBP:0   MisRate:0.00%    MPKI:0.00
PC:11acc     Total:1      MisBP:0   MisRate:0.00%    MPKI:0.00
PC:11ac8     Total:1      MisBP:0   MisRate:0.00%    MPKI:0.00
PC:11ac4     Total:1      MisBP:0   MisRate:0.00%    MPKI:0.00
PC:11ac2     Total:1      MisBP:0   MisRate:0.00%    MPKI:0.00
PC:11ac0     Total:1      MisBP:0   MisRate:0.00%    MPKI:0.00
PC:11970     Total:137      MisBP:0   MisRate:0.00%    MPKI:0.00
PC:1196e     Total:325      MisBP:0   MisRate:0.00%    MPKI:0.00
PC:11aac     Total:369      MisBP:0   MisRate:0.00%    MPKI:0.00
PC:1196a     Total:188      MisBP:0   MisRate:0.00%    MPKI:0.00
PC:11968     Total:188      MisBP:0   MisRate:0.00%    MPKI:0.00
PC:11966     Total:189      MisBP:0   MisRate:0.00%    MPKI:0.00
PC:11964     Total:189      MisBP:0   MisRate:0.00%    MPKI:0.00
PC:11962     Total:191      MisBP:0   MisRate:0.00%    MPKI:0.00
PC:11960     Total:191      MisBP:0   MisRate:0.00%    MPKI:0.00
PC:1195e     Total:228      MisBP:0   MisRate:0.00%    MPKI:0.00
PC:1195c     Total:228      MisBP:0   MisRate:0.00%    MPKI:0.00
PC:118f4     Total:500141      MisBP:0   MisRate:0.00%    MPKI:0.00
PC:11a86     Total:1466      MisBP:0   MisRate:0.00%    MPKI:0.00
PC:11a84     Total:1495      MisBP:0   MisRate:0.00%    MPKI:0.00
PC:11a80     Total:1497      MisBP:0   MisRate:0.00%    MPKI:0.00
PC:10a42     Total:1629      MisBP:0   MisRate:0.00%    MPKI:0.00
PC:10a3e     Total:3268      MisBP:0   MisRate:0.00%    MPKI:0.00
PC:10a3a     Total:1230      MisBP:0   MisRate:0.00%    MPKI:0.00
PC:10a68     Total:1      MisBP:0   MisRate:0.00%    MPKI:0.00
PC:10a64     Total:1      MisBP:0   MisRate:0.00%    MPKI:0.00
PC:10a60     Total:1      MisBP:0   MisRate:0.00%    MPKI:0.00
PC:11a8a     Total:1466      MisBP:0   MisRate:0.00%    MPKI:0.00
PC:118ee     Total:502287      MisBP:0   MisRate:0.00%    MPKI:0.00
PC:11934     Total:2      MisBP:0   MisRate:0.00%    MPKI:0.00
PC:1192e     Total:569096      MisBP:0   MisRate:0.00%    MPKI:0.00
PC:11926     Total:16408      MisBP:0   MisRate:0.00%    MPKI:0.00
PC:11922     Total:16536      MisBP:0   MisRate:0.00%    MPKI:0.00
PC:1191e     Total:16596      MisBP:0   MisRate:0.00%    MPKI:0.00
PC:1191a     Total:594221      MisBP:0   MisRate:0.00%    MPKI:0.00
PC:11916     Total:601265      MisBP:0   MisRate:0.00%    MPKI:0.00
PC:11912     Total:603450      MisBP:0   MisRate:0.00%    MPKI:0.00
PC:11aa0     Total:479      MisBP:0   MisRate:0.00%    MPKI:0.00
PC:11aaa     Total:369      MisBP:0   MisRate:0.00%    MPKI:0.00
PC:11888     Total:697      MisBP:0   MisRate:0.00%    MPKI:0.00
PC:11884     Total:1561      MisBP:0   MisRate:0.00%    MPKI:0.00
PC:10a46     Total:1584384      MisBP:0   MisRate:0.00%    MPKI:0.00
PC:10a0c     Total:1795361      MisBP:0   MisRate:0.00%    MPKI:0.00
PC:10a10     Total:7288559      MisBP:0   MisRate:0.00%    MPKI:0.00
PC:10a1e     Total:7052403      MisBP:0   MisRate:0.00%    MPKI:0.00
PC:11aa4     Total:463      MisBP:0   MisRate:0.00%    MPKI:0.00
PC:11aa2     Total:465      MisBP:0   MisRate:0.00%    MPKI:0.00
PC:11cca     Total:66556      MisBP:0   MisRate:0.00%    MPKI:0.00
PC:11a9e     Total:481      MisBP:0   MisRate:0.00%    MPKI:0.00
PC:11a9c     Total:482      MisBP:0   MisRate:0.00%    MPKI:0.00
PC:11a9a     Total:483      MisBP:0   MisRate:0.00%    MPKI:0.00
PC:11a96     Total:483      MisBP:0   MisRate:0.00%    MPKI:0.00
PC:11a94     Total:483      MisBP:0   MisRate:0.00%    MPKI:0.00
PC:11a92     Total:483      MisBP:0   MisRate:0.00%    MPKI:0.00
PC:11a90     Total:483      MisBP:0   MisRate:0.00%    MPKI:0.00
PC:11a8c     Total:492      MisBP:0   MisRate:0.00%    MPKI:0.00
PC:11b70     Total:213244      MisBP:0   MisRate:0.00%    MPKI:0.00
PC:118a0     Total:1531718      MisBP:0   MisRate:0.00%    MPKI:0.00
PC:1186a     Total:608660      MisBP:0   MisRate:0.00%    MPKI:0.00
PC:10a22     Total:7008885      MisBP:0   MisRate:0.00%    MPKI:0.00
PC:11b76     Total:488649      MisBP:0   MisRate:0.00%    MPKI:0.00
PC:1173c     Total:11610      MisBP:0   MisRate:0.00%    MPKI:0.00
PC:11c70     Total:34142      MisBP:0   MisRate:0.00%    MPKI:0.00
PC:11836     Total:94      MisBP:0   MisRate:0.00%    MPKI:0.00
PC:11834     Total:94      MisBP:0   MisRate:0.00%    MPKI:0.00
PC:10a1c     Total:7055126      MisBP:0   MisRate:0.00%    MPKI:0.00
PC:1186c     Total:604735      MisBP:0   MisRate:0.00%    MPKI:0.00
PC:11736     Total:11631      MisBP:0   MisRate:0.00%    MPKI:0.00
PC:11c6c     Total:8769081      MisBP:0   MisRate:0.00%    MPKI:0.00
PC:11832     Total:94      MisBP:0   MisRate:0.00%    MPKI:0.00
PC:10a1a     Total:7402813      MisBP:0   MisRate:0.00%    MPKI:0.00
PC:11b6e     Total:213260      MisBP:0   MisRate:0.00%    MPKI:0.00
PC:11734     Total:11631      MisBP:0   MisRate:0.00%    MPKI:0.00
PC:11c6a     Total:8772050      MisBP:0   MisRate:0.00%    MPKI:0.00
PC:11830     Total:95      MisBP:0   MisRate:0.00%    MPKI:0.00
PC:11ce6     Total:1      MisBP:0   MisRate:0.00%    MPKI:0.00
PC:118b0     Total:1204306      MisBP:0   MisRate:0.00%    MPKI:0.00
PC:11cea     Total:2      MisBP:0   MisRate:0.00%    MPKI:0.00
PC:11cb4     Total:54      MisBP:0   MisRate:0.00%    MPKI:0.00
PC:1187a     Total:515190      MisBP:0   MisRate:0.00%    MPKI:0.00
PC:11a38     Total:13258      MisBP:0   MisRate:0.00%    MPKI:0.00
PC:11c3a     Total:8757103      MisBP:0   MisRate:0.00%    MPKI:0.00
PC:1193a     Total:1071      MisBP:0   MisRate:0.00%    MPKI:0.00
PC:11b3c     Total:1784387      MisBP:0   MisRate:0.00%    MPKI:0.00
PC:118ac     Total:1207241      MisBP:0   MisRate:0.00%    MPKI:0.00
PC:10a18     Total:7406591      MisBP:0   MisRate:0.00%    MPKI:0.00
PC:11cb0     Total:54      MisBP:0   MisRate:0.00%    MPKI:0.00
PC:118ba     Total:1173202      MisBP:0   MisRate:0.00%    MPKI:0.00
PC:11cac     Total:54      MisBP:0   MisRate:0.00%    MPKI:0.00
PC:11caa     Total:54      MisBP:0   MisRate:0.00%    MPKI:0.00
PC:11870     Total:12234      MisBP:0   MisRate:0.00%    MPKI:0.00
PC:118a4     Total:1529639      MisBP:0   MisRate:0.00%    MPKI:0.00
PC:11cde     Total:1      MisBP:0   MisRate:0.00%    MPKI:0.00
PC:11ca6     Total:24659      MisBP:0   MisRate:0.00%    MPKI:0.00
PC:11c9a     Total:30979      MisBP:0   MisRate:0.00%    MPKI:0.00
PC:11828     Total:88      MisBP:0   MisRate:0.00%    MPKI:0.00
PC:11898     Total:8955      MisBP:0   MisRate:0.00%    MPKI:0.00
PC:11cd2     Total:12007      MisBP:0   MisRate:0.00%    MPKI:0.00
PC:11c9c     Total:30979      MisBP:0   MisRate:0.00%    MPKI:0.00
PC:11862     Total:611832      MisBP:0   MisRate:0.00%    MPKI:0.00
PC:11c60     Total:8789910      MisBP:0   MisRate:0.00%    MPKI:0.00
PC:11b62     Total:1514327      MisBP:0   MisRate:0.00%    MPKI:0.00
PC:11728     Total:12368      MisBP:0   MisRate:0.00%    MPKI:0.00
PC:11896     Total:8956      MisBP:0   MisRate:0.00%    MPKI:0.00
PC:11c62     Total:8787765      MisBP:0   MisRate:0.00%    MPKI:0.00
PC:11c5e     Total:8792381      MisBP:0   MisRate:0.00%    MPKI:0.00
PC:11824     Total:88      MisBP:0   MisRate:0.00%    MPKI:0.00
PC:11c76     Total:25402      MisBP:0   MisRate:0.00%    MPKI:0.00
PC:1183c     Total:141      MisBP:0   MisRate:0.00%    MPKI:0.00
PC:10a24     Total:7007697      MisBP:0   MisRate:0.00%    MPKI:0.00
PC:11b78     Total:488647      MisBP:0   MisRate:0.00%    MPKI:0.00
PC:1173e     Total:11113      MisBP:0   MisRate:0.00%    MPKI:0.00
PC:11c5c     Total:8795850      MisBP:0   MisRate:0.00%    MPKI:0.00
PC:11c66     Total:8778393      MisBP:0   MisRate:0.00%    MPKI:0.00
PC:11732     Total:11636      MisBP:0   MisRate:0.00%    MPKI:0.00
PC:11c68     Total:8775288      MisBP:0   MisRate:0.00%    MPKI:0.00
PC:1182e     Total:97      MisBP:0   MisRate:0.00%    MPKI:0.00
PC:11b6a     Total:419165      MisBP:0   MisRate:0.00%    MPKI:0.00
PC:1189e     Total:8953      MisBP:0   MisRate:0.00%    MPKI:0.00
PC:11cd8     Total:12007      MisBP:0   MisRate:0.00%    MPKI:0.00
PC:11ca2     Total:30974      MisBP:0   MisRate:0.00%    MPKI:0.00
PC:11868     Total:608786      MisBP:0   MisRate:0.00%    MPKI:0.00
PC:11876     Total:518296      MisBP:0   MisRate:0.00%    MPKI:0.00
PC:1182c     Total:98      MisBP:0   MisRate:0.00%    MPKI:0.00
PC:10a14     Total:8644552      MisBP:0   MisRate:0.00%    MPKI:0.00
PC:11c64     Total:8784783      MisBP:0   MisRate:0.00%    MPKI:0.00
PC:1182a     Total:88      MisBP:0   MisRate:0.00%    MPKI:0.00
PC:10a12     Total:8647122      MisBP:0   MisRate:0.00%    MPKI:0.00
PC:1172c     Total:12078      MisBP:0   MisRate:0.00%    MPKI:0.00
PC:11c9e     Total:30979      MisBP:0   MisRate:0.00%    MPKI:0.00
PC:11864     Total:611646      MisBP:0   MisRate:0.00%    MPKI:0.00
PC:118b8     Total:1173931      MisBP:0   MisRate:0.00%    MPKI:0.00
PC:11818     Total:24037      MisBP:0   MisRate:0.00%    MPKI:0.00
PC:10a00     Total:1824881      MisBP:0   MisRate:0.00%    MPKI:0.00
PC:1180e     Total:24049      MisBP:0   MisRate:0.00%    MPKI:0.00
PC:11b54     Total:661224      MisBP:0   MisRate:0.00%    MPKI:0.00
PC:1171a     Total:12285      MisBP:0   MisRate:0.00%    MPKI:0.00
PC:11c4e     Total:8816926      MisBP:0   MisRate:0.00%    MPKI:0.00
PC:1180c     Total:24061      MisBP:0   MisRate:0.00%    MPKI:0.00
PC:1170e     Total:12480      MisBP:0   MisRate:0.00%    MPKI:0.00
PC:11c52     Total:8814188      MisBP:0   MisRate:0.00%    MPKI:0.00
PC:11cbc     Total:12034      MisBP:0   MisRate:0.00%    MPKI:0.00
PC:118b6     Total:1175655      MisBP:0   MisRate:0.00%    MPKI:0.00
PC:11cf0     Total:1      MisBP:0   MisRate:0.00%    MPKI:0.00
PC:11c48     Total:8766341      MisBP:0   MisRate:0.00%    MPKI:0.00
PC:11cba     Total:12034      MisBP:0   MisRate:0.00%    MPKI:0.00
PC:11880     Total:71510      MisBP:0   MisRate:0.00%    MPKI:0.00
PC:11c42     Total:8745907      MisBP:0   MisRate:0.00%    MPKI:0.00
PC:11820     Total:89      MisBP:0   MisRate:0.00%    MPKI:0.00
PC:11b5c     Total:1516709      MisBP:0   MisRate:0.00%    MPKI:0.00
PC:11722     Total:12397      MisBP:0   MisRate:0.00%    MPKI:0.00
PC:118ca     Total:1862881      MisBP:0   MisRate:0.00%    MPKI:0.00
PC:11c58     Total:8802942      MisBP:0   MisRate:0.00%    MPKI:0.00
PC:10a08     Total:1798217      MisBP:0   MisRate:0.00%    MPKI:0.00
PC:10a06     Total:1815946      MisBP:0   MisRate:0.00%    MPKI:0.00
PC:11b5a     Total:1517059      MisBP:0   MisRate:0.00%    MPKI:0.00
PC:11720     Total:12399      MisBP:0   MisRate:0.00%    MPKI:0.00
PC:1193e     Total:349      MisBP:0   MisRate:0.00%    MPKI:0.00
PC:11c5a     Total:8799521      MisBP:0   MisRate:0.00%    MPKI:0.00
PC:11ccc     Total:66556      MisBP:0   MisRate:0.00%    MPKI:0.00
PC:11892     Total:8962      MisBP:0   MisRate:0.00%    MPKI:0.00
PC:1181c     Total:117      MisBP:0   MisRate:0.00%    MPKI:0.00
PC:10a04     Total:1821784      MisBP:0   MisRate:0.00%    MPKI:0.00
PC:1171e     Total:12346      MisBP:0   MisRate:0.00%    MPKI:0.00
PC:11710     Total:12480      MisBP:0   MisRate:0.00%    MPKI:0.00
PC:11cbe     Total:12023      MisBP:0   MisRate:0.00%    MPKI:0.00
PC:11cb8     Total:12035      MisBP:0   MisRate:0.00%    MPKI:0.00
PC:11cee     Total:1      MisBP:0   MisRate:0.00%    MPKI:0.00
PC:11a3e     Total:13250      MisBP:0   MisRate:0.00%    MPKI:0.00
PC:11804     Total:11045      MisBP:0   MisRate:0.00%    MPKI:0.00
PC:118b4     Total:1190514      MisBP:0   MisRate:0.00%    MPKI:0.00
PC:11c3e     Total:8756076      MisBP:0   MisRate:0.00%    MPKI:0.00
PC:1170a     Total:12394      MisBP:0   MisRate:0.00%    MPKI:0.00
PC:11cf4     Total:1      MisBP:0   MisRate:0.00%    MPKI:0.00
PC:11c40     Total:8747183      MisBP:0   MisRate:0.00%    MPKI:0.00
PC:118b2     Total:1203927      MisBP:0   MisRate:0.00%    MPKI:0.00
PC:1187c     Total:511051      MisBP:0   MisRate:0.00%    MPKI:0.00
PC:11808     Total:11027      MisBP:0   MisRate:0.00%    MPKI:0.00
PC:11cb6     Total:54      MisBP:0   MisRate:0.00%    MPKI:0.00
PC:11cce     Total:464819      MisBP:2   MisRate:0.00%    MPKI:0.00
PC:11858     Total:29      MisBP:3   MisRate:10.34%    MPKI:0.00
PC:11c36     Total:34525      MisBP:8   MisRate:0.02%    MPKI:0.00
PC:11aa6     Total:461      MisBP:18   MisRate:3.90%    MPKI:0.00
PC:1181e     Total:117      MisBP:22   MisRate:18.80%    MPKI:0.00
PC:1183a     Total:94      MisBP:26   MisRate:27.66%    MPKI:0.00
PC:1183e     Total:140      MisBP:29   MisRate:20.71%    MPKI:0.00
PC:11ca8     Total:24657      MisBP:40   MisRate:0.16%    MPKI:0.00
PC:11c46     Total:8744327      MisBP:44   MisRate:0.00%    MPKI:0.00
PC:11a78     Total:10397      MisBP:53   MisRate:0.51%    MPKI:0.00
PC:1181a     Total:24022      MisBP:61   MisRate:0.25%    MPKI:0.00
PC:11730     Total:12077      MisBP:93   MisRate:0.77%    MPKI:0.00
PC:11c94     Total:25349      MisBP:107   MisRate:0.42%    MPKI:0.00
PC:10a48     Total:1579219      MisBP:125   MisRate:0.01%    MPKI:0.00
PC:11740     Total:10503      MisBP:132   MisRate:1.26%    MPKI:0.00
PC:11bcc     Total:6409      MisBP:187   MisRate:2.92%    MPKI:0.00
PC:11872     Total:12233      MisBP:203   MisRate:1.66%    MPKI:0.00
PC:11bc0     Total:6247      MisBP:228   MisRate:3.65%    MPKI:0.00
PC:119e4     Total:14012      MisBP:251   MisRate:1.79%    MPKI:0.00
PC:10a38     Total:20891256      MisBP:293   MisRate:0.00%    MPKI:0.00
PC:119e8     Total:13779      MisBP:303   MisRate:2.20%    MPKI:0.00
PC:10a3c     Total:1229      MisBP:315   MisRate:25.63%    MPKI:0.00
PC:117e6     Total:28745      MisBP:367   MisRate:1.28%    MPKI:0.00
PC:118fe     Total:492624      MisBP:602   MisRate:0.12%    MPKI:0.00
PC:11860     Total:21434      MisBP:1089   MisRate:5.08%    MPKI:0.00
PC:1176c     Total:331984      MisBP:1533   MisRate:0.46%    MPKI:0.00
PC:118e4     Total:1282167      MisBP:1668   MisRate:0.13%    MPKI:0.01
PC:11be8     Total:463326      MisBP:2688   MisRate:0.58%    MPKI:0.01
PC:11b68     Total:223428      MisBP:2937   MisRate:1.31%    MPKI:0.01
PC:11bd0     Total:466128      MisBP:3104   MisRate:0.67%    MPKI:0.01
PC:11c74     Total:34127      MisBP:3580   MisRate:10.49%    MPKI:0.01
PC:11778     Total:2829471      MisBP:4462   MisRate:0.16%    MPKI:0.01
PC:117a8     Total:27592      MisBP:5149   MisRate:18.66%    MPKI:0.02
PC:117f4     Total:20720      MisBP:5231   MisRate:25.25%    MPKI:0.02
PC:11ca4     Total:30972      MisBP:5990   MisRate:19.34%    MPKI:0.02
PC:11802     Total:24782      MisBP:6360   MisRate:25.66%    MPKI:0.02
PC:11c0c     Total:454166      MisBP:6633   MisRate:1.46%    MPKI:0.02
PC:11c56     Total:8810643      MisBP:8633   MisRate:0.10%    MPKI:0.03
PC:1187e     Total:511019      MisBP:9238   MisRate:1.81%    MPKI:0.03
PC:1186e     Total:604584      MisBP:9583   MisRate:1.59%    MPKI:0.03
PC:118c0     Total:2157291      MisBP:10285   MisRate:0.48%    MPKI:0.03
PC:11b6c     Total:419150      MisBP:30176   MisRate:7.20%    MPKI:0.10
PC:11c4c     Total:8759988      MisBP:30597   MisRate:0.35%    MPKI:0.10
PC:11c6e     Total:8766607      MisBP:32541   MisRate:0.37%    MPKI:0.10
PC:1191c     Total:590990      MisBP:44812   MisRate:7.58%    MPKI:0.14
PC:109fa     Total:1486382      MisBP:45165   MisRate:3.04%    MPKI:0.15
PC:10a28     Total:7001404      MisBP:50101   MisRate:0.72%    MPKI:0.16
PC:11b48     Total:1490539      MisBP:52685   MisRate:3.53%    MPKI:0.17
PC:11b58     Total:660011      MisBP:73924   MisRate:11.20%    MPKI:0.24
PC:118c8     Total:3362003      MisBP:77985   MisRate:2.32%    MPKI:0.25
PC:11b3e     Total:1783932      MisBP:86620   MisRate:4.86%    MPKI:0.28
PC:11b66     Total:1514062      MisBP:99086   MisRate:6.54%    MPKI:0.32
PC:11b7a     Total:488640      MisBP:114746   MisRate:23.48%    MPKI:0.37
PC:11b86     Total:1495495      MisBP:158140   MisRate:10.57%    MPKI:0.51
PC:118cc     Total:1842054      MisBP:209015   MisRate:11.35%    MPKI:0.67
PC:11768     Total:5265947      MisBP:212061   MisRate:4.03%    MPKI:0.68
PC:118a8     Total:1527719      MisBP:216108   MisRate:14.15%    MPKI:0.70
PC:11772     Total:3107120      MisBP:222849   MisRate:7.17%    MPKI:0.72
PC:10a0e     Total:1778477      MisBP:267374   MisRate:15.03%    MPKI:0.86
PC:10a16     Total:8632762      MisBP:641948   MisRate:7.44%    MPKI:2.07
PC:10a32     Total:20247582      MisBP:864999   MisRate:4.27%    MPKI:2.79
Totfetch:644730670  TotInsts:310000002  TotMis : inf%   MPKI : 11.69
=============finish sim!!!!!!=============
Done running SimPoint!
