Global frequency set at 1000000000000 ticks per second
 Register [printBranch()] ExitCallback !!!!!!! 
gem5 Simulator System.  https://www.gem5.org
gem5 is copyrighted software; use the --copyright option for details.

gem5 version 22.0.0.2
gem5 compiled Sep  7 2022 00:42:18
gem5 started Sep  7 2022 01:42:34
gem5 executing on a100, pid 2721404
command line: /data/zxf/gem5/gem5-prof/build/ARM/gem5.fast --outdir=/data/zxf/checkpoint/spec2006/471.omnetpp/prof/omnetpp_ckp_2 /data/zxf/gem5/gem5-prof/configs/example/se.py --cpu-type O3CPU --cpu-clock 1GHz --num-cpu 1 --l1d-hwp-type=BOPPrefetcher --caches --l2cache --l1i_size 32kB --l1d_size 32kB --l2_size 1MB --l1i_assoc 8 --l1d_assoc 8 --l2_assoc 16 --cacheline_size 64 --mem-type DDR3_2133_8x8 --mem-size 16GB --restore-simpoint-checkpoint -r 2 --checkpoint-dir /data/zxf/checkpoint/spec2006/471.omnetpp/ckpt -c omnetpp_base.gcc41-64bit -o omnetpp.ini

info: Standard input is not a terminal, disabling listeners.
Resuming from /data/zxf/checkpoint/spec2006/471.omnetpp/ckpt/cpt.simpoint_01_inst_11690000000_weight_0.022529_interval_300000000_warmup_10000000
Resuming from SimPoint #1, start_inst:11690000000, weight:0.022529, interval:300000000, warmup:10000000
Switch at curTick count:10000
Switched CPUS @ tick 6688488362000
[(<m5.objects.ArmCPU.ArmAtomicSimpleCPU object at 0x7f41cfda6940>, <m5.objects.ArmCPU.ArmO3CPU object at 0x7f41cfdbedc0>)]
switching cpus



+++++++++++++++++++++++++zxf print simpoint+++++++++++++++++++++++++++
largeNet.mlanBB[15].host[0].srv registering DSAP 241
largeNet.mlanBB[15].host[1].srv registering DSAP 241
largeNet.mlanBB[15].host[2].srv registering DSAP 241
largeNet.mlanBB[15].host[3].srv registering DSAP 241
Warmed up! Dumping and resetting stats!


=============start sim!!!!!!=============
largeNet.mlanBB[15].host[4].srv registering DSAP 241
largeNet.mlanBB[15].host[5].srv registering DSAP 241
largeNet.mlanBB[15].host[6].srv registering DSAP 241
largeNet.mlanBB[15].host[7].srv registering DSAP 241
largeNet.mlanBB[15].host[8].srv registering DSAP 241
largeNet.mlanBB[15].host[9].srv registering DSAP 241
largeNet.mlanBB[15].host[10].srv registering DSAP 241
largeNet.mlanBB[15].host[11].srv registering DSAP 241
Autoconfig: advertising that we only support half-duplex operation
largeNet.mlanBB[15].hhost[0].srv registering DSAP 241
largeNet.mlanBB[15].hhost[1].srv registering DSAP 241
largeNet.mlanBB[15].hhost[2].srv registering DSAP 241
largeNet.mlanBB[15].hhost[3].srv registering DSAP 241
largeNet.mlanBB[15].hhost[4].srv registering DSAP 241
Parameters of (MACRelayUnitNP) largeNet.mlanBB[16].switch.relayUnit
number of processors: 1
processing time: 1e-05
ports: 14
buffer size: 1048576
address table size: 100
aging time: 120
high watermark: 524288
pause time: 300

largeNet.mlanBB[16].host[0].srv registering DSAP 241
largeNet.mlanBB[16].host[1].srv registering DSAP 241
largeNet.mlanBB[16].host[2].srv registering DSAP 241
largeNet.mlanBB[16].host[3].srv registering DSAP 241
largeNet.mlanBB[16].host[4].srv registering DSAP 241
largeNet.mlanBB[16].host[5].srv registering DSAP 241
largeNet.mlanBB[16].host[6].srv registering DSAP 241
largeNet.mlanBB[16].host[7].srv registering DSAP 241
largeNet.mlanBB[16].host[8].srv registering DSAP 241
largeNet.mlanBB[16].host[9].srv registering DSAP 241
largeNet.mlanBB[16].host[10].srv registering DSAP 241
largeNet.mlanBB[16].host[11].srv registering DSAP 241
Autoconfig: advertising that we only support half-duplex operation
largeNet.mlanBB[16].hhost[0].srv registering DSAP 241
largeNet.mlanBB[16].hhost[1].srv registering DSAP 241
largeNet.mlanBB[16].hhost[2].srv registering DSAP 241
largeNet.mlanBB[16].hhost[3].srv registering DSAP 241
largeNet.mlanBB[16].hhost[4].srv registering DSAP 241
Parameters of (MACRelayUnitNP) largeNet.mlanBB[17].switch.relayUnit
number of processors: 1
processing time: 1e-05
ports: 14
buffer size: 1048576
address table size: 100
aging time: 120
high watermark: 524288
pause time: 300

largeNet.mlanBB[17].host[0].srv registering DSAP 241
largeNet.mlanBB[17].host[1].srv registering DSAP 241
largeNet.mlanBB[17].host[2].srv registering DSAP 241
largeNet.mlanBB[17].host[3].srv registering DSAP 241
largeNet.mlanBB[17].host[4].srv registering DSAP 241
largeNet.mlanBB[17].host[5].srv registering DSAP 241
largeNet.mlanBB[17].host[6].srv registering DSAP 241
largeNet.mlanBB[17].host[7].srv registering DSAP 241
largeNet.mlanBB[17].host[8].srv registering DSAP 241
largeNet.mlanBB[17].host[9].srv registering DSAP 241
largeNet.mlanBB[17].host[10].srv registering DSAP 241
largeNet.mlanBB[17].host[11].srv registering DSAP 241
Autoconfig: advertising that we only support half-duplex operation
largeNet.mlanBB[17].hhost[0].srv registering DSAP 241
largeNet.mlanBB[17].hhost[1].srv registering DSAP 241
largeNet.mlanBB[17].hhost[2].srv registering DSAP 241
largeNet.mlanBB[17].hhost[3].srv registering DSAP 241
largeNet.mlanBB[17].hhost[4].srv registering DSAP 241
Parameters of (MACRelayUnitNP) largeNet.mlanBB[18].switch.relayUnit
number of processors: 1
processing time: 1e-05
ports: 14
buffer size: 1048576
address table size: 100
aging time: 120
high watermark: 524288
pause time: 300

largeNet.mlanBB[18].host[0].srv registering DSAP 241
largeNet.mlanBB[18].host[1].srv registering DSAP 241
largeNet.mlanBB[18].host[2].srv registering DSAP 241
largeNet.mlanBB[18].host[3].srv registering DSAP 241
largeNet.mlanBB[18].host[4].srv registering DSAP 241
largeNet.mlanBB[18].host[5].srv registering DSAP 241
largeNet.mlanBB[18].host[6].srv registering DSAP 241
largeNet.mlanBB[18].host[7].srv registering DSAP 241
largeNet.mlanBB[18].host[8].srv registering DSAP 241
largeNet.mlanBB[18].host[9].srv registering DSAP 241
largeNet.mlanBB[18].host[10].srv registering DSAP 241
largeNet.mlanBB[18].host[11].srv registering DSAP 241
Autoconfig: advertising that we only support half-duplex operation
largeNet.mlanBB[18].hhost[0].srv registering DSAP 241
largeNet.mlanBB[18].hhost[1].srv registering DSAP 241
largeNet.mlanBB[18].hhost[2].srv registering DSAP 241
largeNet.mlanBB[18].hhost[3].srv registering DSAP 241
largeNet.mlanBB[18].hhost[4].srv registering DSAP 241
Parameters of (MACRelayUnitNP) largeNet.mlanBB[19].switch.relayUnit
number of processors: 1
processing time: 1e-05
ports: 14
buffer size: 1048576
address table size: 100
aging time: 120
high watermark: 524288
pause time: 300

largeNet.mlanBB[19].host[0].srv registering DSAP 241
largeNet.mlanBB[19].host[1].srv registering DSAP 241
largeNet.mlanBB[19].host[2].srv registering DSAP 241
largeNet.mlanBB[19].host[3].srv registering DSAP 241
largeNet.mlanBB[19].host[4].srv registering DSAP 241
largeNet.mlanBB[19].host[5].srv registering DSAP 241
largeNet.mlanBB[19].host[6].srv registering DSAP 241
largeNet.mlanBB[19].host[7].srv registering DSAP 241
largeNet.mlanBB[19].host[8].srv registering DSAP 241
largeNet.mlanBB[19].host[9].srv registering DSAP 241
largeNet.mlanBB[19].host[10].srv registering DSAP 241
largeNet.mlanBB[19].host[11].srv registering DSAP 241
Autoconfig: advertising that we only support half-duplex operation
largeNet.mlanBB[19].hhost[0].srv registering DSAP 241
largeNet.mlanBB[19].hhost[1].srv registering DSAP 241
largeNet.mlanBB[19].hhost[2].srv registering DSAP 241
largeNet.mlanBB[19].hhost[3].srv registering DSAP 241
largeNet.mlanBB[19].hhost[4].srv registering DSAP 241
Parameters of (MACRelayUnitNP) largeNet.mlanBB[20].switch.relayUnit
number of processors: 1
processing time: 1e-05
ports: 14
buffer size: 1048576
address table size: 100
aging time: 120
high watermark: 524288
pause time: 300

largeNet.mlanBB[20].host[0].srv registering DSAP 241
largeNet.mlanBB[20].host[1].srv registering DSAP 241
largeNet.mlanBB[20].host[2].srv registering DSAP 241
largeNet.mlanBB[20].host[3].srv registering DSAP 241
largeNet.mlanBB[20].host[4].srv registering DSAP 241
largeNet.mlanBB[20].host[5].srv registering DSAP 241
largeNet.mlanBB[20].host[6].srv registering DSAP 241
largeNet.mlanBB[20].host[7].srv registering DSAP 241
largeNet.mlanBB[20].host[8].srv registering DSAP 241
largeNet.mlanBB[20].host[9].srv registering DSAP 241
largeNet.mlanBB[20].host[10].srv registering DSAP 241
largeNet.mlanBB[20].host[11].srv registering DSAP 241
Autoconfig: advertising that we only support half-duplex operation
largeNet.mlanBB[20].hhost[0].srv registering DSAP 241
largeNet.mlanBB[20].hhost[1].srv registering DSAP 241
largeNet.mlanBB[20].hhost[2].srv registering DSAP 241
largeNet.mlanBB[20].hhost[3].srv registering DSAP 241
largeNet.mlanBB[20].hhost[4].srv registering DSAP 241
Parameters of (MACRelayUnitNP) largeNet.mlanBB[21].switch.relayUnit
number of processors: 1
processing time: 1e-05
ports: 14
buffer size: 1048576
address table size: 100
aging time: 120
high watermark: 524288
pause time: 300

largeNet.mlanBB[21].host[0].srv registering DSAP 241
largeNet.mlanBB[21].host[1].srv registering DSAP 241
largeNet.mlanBB[21].host[2].srv registering DSAP 241
largeNet.mlanBB[21].host[3].srv registering DSAP 241
largeNet.mlanBB[21].host[4].srv registering DSAP 241
largeNet.mlanBB[21].host[5].srv registering DSAP 241
largeNet.mlanBB[21].host[6].srv registering DSAP 241
largeNet.mlanBB[21].host[7].srv registering DSAP 241
largeNet.mlanBB[21].host[8].srv registering DSAP 241
largeNet.mlanBB[21].host[9].srv registering DSAP 241
PC:bbda0     Total:1      MisBP:0   MisRate:0.00%    MPKI:0.00
PC:bbd94     Total:2      MisBP:0   MisRate:0.00%    MPKI:0.00
PC:bbd96     Total:2      MisBP:0   MisRate:0.00%    MPKI:0.00
PC:d4868     Total:31142      MisBP:0   MisRate:0.00%    MPKI:0.00
PC:fd0f0     Total:23      MisBP:0   MisRate:0.00%    MPKI:0.00
PC:d486c     Total:28704      MisBP:0   MisRate:0.00%    MPKI:0.00
PC:fd0f4     Total:23      MisBP:0   MisRate:0.00%    MPKI:0.00
PC:bbd9c     Total:1      MisBP:0   MisRate:0.00%    MPKI:0.00
PC:bbd9e     Total:1      MisBP:0   MisRate:0.00%    MPKI:0.00
PC:d4870     Total:28704      MisBP:0   MisRate:0.00%    MPKI:0.00
PC:fd0f8     Total:23      MisBP:0   MisRate:0.00%    MPKI:0.00
PC:bbd90     Total:2      MisBP:0   MisRate:0.00%    MPKI:0.00
PC:bbda2     Total:1      MisBP:0   MisRate:0.00%    MPKI:0.00
PC:d4874     Total:28703      MisBP:0   MisRate:0.00%    MPKI:0.00
PC:fd0fc     Total:23      MisBP:0   MisRate:0.00%    MPKI:0.00
PC:bbda6     Total:1      MisBP:0   MisRate:0.00%    MPKI:0.00
PC:d4878     Total:28703      MisBP:0   MisRate:0.00%    MPKI:0.00
PC:fd100     Total:20      MisBP:0   MisRate:0.00%    MPKI:0.00
PC:bbda8     Total:1      MisBP:0   MisRate:0.00%    MPKI:0.00
PC:bbdac     Total:1      MisBP:0   MisRate:0.00%    MPKI:0.00
PC:bbdae     Total:1      MisBP:0   MisRate:0.00%    MPKI:0.00
PC:bbd84     Total:1      MisBP:0   MisRate:0.00%    MPKI:0.00
PC:bbe3a     Total:1      MisBP:0   MisRate:0.00%    MPKI:0.00
PC:bbe3c     Total:1      MisBP:0   MisRate:0.00%    MPKI:0.00
PC:bbd7e     Total:1      MisBP:0   MisRate:0.00%    MPKI:0.00
PC:18408     Total:11      MisBP:0   MisRate:0.00%    MPKI:0.00
PC:befff56c     Total:2      MisBP:0   MisRate:0.00%    MPKI:0.00
PC:fd0d8     Total:48      MisBP:0   MisRate:0.00%    MPKI:0.00
PC:bbd80     Total:1      MisBP:0   MisRate:0.00%    MPKI:0.00
PC:bbd82     Total:1      MisBP:0   MisRate:0.00%    MPKI:0.00
PC:d4854     Total:35719      MisBP:0   MisRate:0.00%    MPKI:0.00
PC:fd0dc     Total:24      MisBP:0   MisRate:0.00%    MPKI:0.00
PC:bbdb2     Total:1      MisBP:0   MisRate:0.00%    MPKI:0.00
PC:bbd86     Total:1      MisBP:0   MisRate:0.00%    MPKI:0.00
PC:befff574     Total:2      MisBP:0   MisRate:0.00%    MPKI:0.00
PC:fd0e0     Total:24      MisBP:0   MisRate:0.00%    MPKI:0.00
PC:bbd8a     Total:1      MisBP:0   MisRate:0.00%    MPKI:0.00
PC:fd0e4     Total:23      MisBP:0   MisRate:0.00%    MPKI:0.00
PC:bbd8e     Total:2      MisBP:0   MisRate:0.00%    MPKI:0.00
PC:befff57c     Total:2      MisBP:0   MisRate:0.00%    MPKI:0.00
PC:d4860     Total:31148      MisBP:0   MisRate:0.00%    MPKI:0.00
PC:fd0e8     Total:23      MisBP:0   MisRate:0.00%    MPKI:0.00
PC:3c342     Total:5710      MisBP:0   MisRate:0.00%    MPKI:0.00
PC:bbde8     Total:2      MisBP:0   MisRate:0.00%    MPKI:0.00
PC:bbdea     Total:2      MisBP:0   MisRate:0.00%    MPKI:0.00
PC:bbdec     Total:2      MisBP:0   MisRate:0.00%    MPKI:0.00
PC:bbdf0     Total:2      MisBP:0   MisRate:0.00%    MPKI:0.00
PC:bbdf2     Total:2      MisBP:0   MisRate:0.00%    MPKI:0.00
PC:bbdf4     Total:2      MisBP:0   MisRate:0.00%    MPKI:0.00
PC:bbdf8     Total:2      MisBP:0   MisRate:0.00%    MPKI:0.00
PC:bbdfa     Total:2      MisBP:0   MisRate:0.00%    MPKI:0.00
PC:bbdfc     Total:1      MisBP:0   MisRate:0.00%    MPKI:0.00
PC:2e77e     Total:224      MisBP:0   MisRate:0.00%    MPKI:0.00
PC:bbde6     Total:2      MisBP:0   MisRate:0.00%    MPKI:0.00
PC:46564     Total:1      MisBP:0   MisRate:0.00%    MPKI:0.00
PC:bfefc     Total:1219      MisBP:0   MisRate:0.00%    MPKI:0.00
PC:3c346     Total:5710      MisBP:0   MisRate:0.00%    MPKI:0.00
PC:bff00     Total:3609      MisBP:0   MisRate:0.00%    MPKI:0.00
PC:2e786     Total:225      MisBP:0   MisRate:0.00%    MPKI:0.00
PC:bff04     Total:1203      MisBP:0   MisRate:0.00%    MPKI:0.00
PC:2e78a     Total:225      MisBP:0   MisRate:0.00%    MPKI:0.00
PC:bff08     Total:3585      MisBP:0   MisRate:0.00%    MPKI:0.00
PC:2e78e     Total:225      MisBP:0   MisRate:0.00%    MPKI:0.00
PC:bbdca     Total:1      MisBP:0   MisRate:0.00%    MPKI:0.00
PC:bbdb6     Total:1      MisBP:0   MisRate:0.00%    MPKI:0.00
PC:bbdb8     Total:1      MisBP:0   MisRate:0.00%    MPKI:0.00
PC:bbdba     Total:3      MisBP:0   MisRate:0.00%    MPKI:0.00
PC:bbdbc     Total:3      MisBP:0   MisRate:0.00%    MPKI:0.00
PC:bbdbe     Total:3      MisBP:0   MisRate:0.00%    MPKI:0.00
PC:bbdc0     Total:1      MisBP:0   MisRate:0.00%    MPKI:0.00
PC:bbdc4     Total:1      MisBP:0   MisRate:0.00%    MPKI:0.00
PC:bbdc6     Total:1      MisBP:0   MisRate:0.00%    MPKI:0.00
PC:bbdc8     Total:1      MisBP:0   MisRate:0.00%    MPKI:0.00
PC:bbe38     Total:1      MisBP:0   MisRate:0.00%    MPKI:0.00
PC:bbdce     Total:1      MisBP:0   MisRate:0.00%    MPKI:0.00
PC:bbdd0     Total:1      MisBP:0   MisRate:0.00%    MPKI:0.00
PC:bbdd2     Total:1      MisBP:0   MisRate:0.00%    MPKI:0.00
PC:bbdd6     Total:1      MisBP:0   MisRate:0.00%    MPKI:0.00
PC:bbdd8     Total:1      MisBP:0   MisRate:0.00%    MPKI:0.00
PC:bbdda     Total:1      MisBP:0   MisRate:0.00%    MPKI:0.00
PC:bbddc     Total:1      MisBP:0   MisRate:0.00%    MPKI:0.00
PC:bbde0     Total:2      MisBP:0   MisRate:0.00%    MPKI:0.00
PC:bbde4     Total:2      MisBP:0   MisRate:0.00%    MPKI:0.00
PC:bbd12     Total:1      MisBP:0   MisRate:0.00%    MPKI:0.00
PC:d8578     Total:2      MisBP:0   MisRate:0.00%    MPKI:0.00
PC:e34fa     Total:5      MisBP:0   MisRate:0.00%    MPKI:0.00
PC:46658     Total:6      MisBP:0   MisRate:0.00%    MPKI:0.00
PC:d4434     Total:5      MisBP:0   MisRate:0.00%    MPKI:0.00
PC:bb91e     Total:1      MisBP:0   MisRate:0.00%    MPKI:0.00
PC:d468a     Total:54      MisBP:0   MisRate:0.00%    MPKI:0.00
PC:bb540     Total:54      MisBP:0   MisRate:0.00%    MPKI:0.00
PC:41dc0     Total:1002      MisBP:0   MisRate:0.00%    MPKI:0.00
PC:d857c     Total:14      MisBP:0   MisRate:0.00%    MPKI:0.00
PC:19af2     Total:7      MisBP:0   MisRate:0.00%    MPKI:0.00
PC:41dbc     Total:1011      MisBP:0   MisRate:0.00%    MPKI:0.00
PC:fd06c     Total:68      MisBP:0   MisRate:0.00%    MPKI:0.00
PC:bbd14     Total:1      MisBP:0   MisRate:0.00%    MPKI:0.00
PC:2f5dc     Total:18      MisBP:0   MisRate:0.00%    MPKI:0.00
PC:19af6     Total:4      MisBP:0   MisRate:0.00%    MPKI:0.00
PC:bbd16     Total:1      MisBP:0   MisRate:0.00%    MPKI:0.00
PC:d47e8     Total:24356      MisBP:0   MisRate:0.00%    MPKI:0.00
PC:fd070     Total:34      MisBP:0   MisRate:0.00%    MPKI:0.00
PC:bbd18     Total:1      MisBP:0   MisRate:0.00%    MPKI:0.00
PC:2f5e0     Total:18      MisBP:0   MisRate:0.00%    MPKI:0.00
PC:bb902     Total:1      MisBP:0   MisRate:0.00%    MPKI:0.00
PC:d693a     Total:5      MisBP:0   MisRate:0.00%    MPKI:0.00
PC:3c180     Total:2562      MisBP:0   MisRate:0.00%    MPKI:0.00
PC:d693c     Total:5      MisBP:0   MisRate:0.00%    MPKI:0.00
PC:d693e     Total:5      MisBP:0   MisRate:0.00%    MPKI:0.00
PC:bb9de     Total:3      MisBP:0   MisRate:0.00%    MPKI:0.00
PC:a759a     Total:10      MisBP:0   MisRate:0.00%    MPKI:0.00
PC:bb8f2     Total:1      MisBP:0   MisRate:0.00%    MPKI:0.00
PC:bb8f6     Total:1      MisBP:0   MisRate:0.00%    MPKI:0.00
PC:bb8fa     Total:1      MisBP:0   MisRate:0.00%    MPKI:0.00
PC:19afa     Total:4      MisBP:0   MisRate:0.00%    MPKI:0.00
PC:bb906     Total:1      MisBP:0   MisRate:0.00%    MPKI:0.00
PC:e34e6     Total:448      MisBP:0   MisRate:0.00%    MPKI:0.00
PC:bb90a     Total:1      MisBP:0   MisRate:0.00%    MPKI:0.00
PC:bb90e     Total:1      MisBP:0   MisRate:0.00%    MPKI:0.00
PC:3c67c     Total:2731      MisBP:0   MisRate:0.00%    MPKI:0.00
PC:d467a     Total:1196      MisBP:0   MisRate:0.00%    MPKI:0.00
PC:e34ee     Total:224      MisBP:0   MisRate:0.00%    MPKI:0.00
PC:d4428     Total:6      MisBP:0   MisRate:0.00%    MPKI:0.00
PC:bb91a     Total:1      MisBP:0   MisRate:0.00%    MPKI:0.00
PC:2f602     Total:8      MisBP:0   MisRate:0.00%    MPKI:0.00
PC:bbd30     Total:1      MisBP:0   MisRate:0.00%    MPKI:0.00
PC:bbd32     Total:1      MisBP:0   MisRate:0.00%    MPKI:0.00
PC:2f5fa     Total:14      MisBP:0   MisRate:0.00%    MPKI:0.00
PC:d4804     Total:924      MisBP:0   MisRate:0.00%    MPKI:0.00
PC:fd08c     Total:27      MisBP:0   MisRate:0.00%    MPKI:0.00
PC:bbd36     Total:1      MisBP:0   MisRate:0.00%    MPKI:0.00
PC:2f5fe     Total:1      MisBP:0   MisRate:0.00%    MPKI:0.00
PC:fd090     Total:27      MisBP:0   MisRate:0.00%    MPKI:0.00
PC:19b1a     Total:1      MisBP:0   MisRate:0.00%    MPKI:0.00
PC:bbd3a     Total:1      MisBP:0   MisRate:0.00%    MPKI:0.00
PC:19b10     Total:1      MisBP:0   MisRate:0.00%    MPKI:0.00
PC:fd094     Total:27      MisBP:0   MisRate:0.00%    MPKI:0.00
PC:2f604     Total:8      MisBP:0   MisRate:0.00%    MPKI:0.00
PC:19b1e     Total:1      MisBP:0   MisRate:0.00%    MPKI:0.00
PC:bbd3e     Total:1      MisBP:0   MisRate:0.00%    MPKI:0.00
PC:fd098     Total:27      MisBP:0   MisRate:0.00%    MPKI:0.00
PC:bbe2e     Total:1      MisBP:0   MisRate:0.00%    MPKI:0.00
PC:bbe32     Total:1      MisBP:0   MisRate:0.00%    MPKI:0.00
PC:bbe34     Total:1      MisBP:0   MisRate:0.00%    MPKI:0.00
PC:bbe36     Total:1      MisBP:0   MisRate:0.00%    MPKI:0.00
PC:2f5ec     Total:18      MisBP:0   MisRate:0.00%    MPKI:0.00
PC:bbd1a     Total:1      MisBP:0   MisRate:0.00%    MPKI:0.00
PC:fd074     Total:34      MisBP:0   MisRate:0.00%    MPKI:0.00
PC:2f5e2     Total:18      MisBP:0   MisRate:0.00%    MPKI:0.00
PC:bbd1e     Total:1      MisBP:0   MisRate:0.00%    MPKI:0.00
PC:d47f0     Total:1542      MisBP:0   MisRate:0.00%    MPKI:0.00
PC:fd078     Total:68      MisBP:0   MisRate:0.00%    MPKI:0.00
PC:2f5e8     Total:18      MisBP:0   MisRate:0.00%    MPKI:0.00
PC:19b04     Total:1      MisBP:0   MisRate:0.00%    MPKI:0.00
PC:bbd24     Total:1      MisBP:0   MisRate:0.00%    MPKI:0.00
PC:bff0c     Total:1195      MisBP:0   MisRate:0.00%    MPKI:0.00
PC:bbd26     Total:1      MisBP:0   MisRate:0.00%    MPKI:0.00
PC:d47f8     Total:938      MisBP:0   MisRate:0.00%    MPKI:0.00
PC:fd080     Total:30      MisBP:0   MisRate:0.00%    MPKI:0.00
PC:bbd2a     Total:1      MisBP:0   MisRate:0.00%    MPKI:0.00
PC:d47fc     Total:938      MisBP:0   MisRate:0.00%    MPKI:0.00
PC:fd084     Total:180      MisBP:0   MisRate:0.00%    MPKI:0.00
PC:19b0c     Total:1      MisBP:0   MisRate:0.00%    MPKI:0.00
PC:bbd2c     Total:1      MisBP:0   MisRate:0.00%    MPKI:0.00
PC:2f5f4     Total:15      MisBP:0   MisRate:0.00%    MPKI:0.00
PC:13922     Total:112      MisBP:0   MisRate:0.00%    MPKI:0.00
PC:1390e     Total:112      MisBP:0   MisRate:0.00%    MPKI:0.00
PC:3c19a     Total:2585      MisBP:0   MisRate:0.00%    MPKI:0.00
PC:d4198     Total:19      MisBP:0   MisRate:0.00%    MPKI:0.00
PC:13912     Total:112      MisBP:0   MisRate:0.00%    MPKI:0.00
PC:3c19e     Total:2585      MisBP:0   MisRate:0.00%    MPKI:0.00
PC:13916     Total:112      MisBP:0   MisRate:0.00%    MPKI:0.00
PC:3c1a2     Total:2585      MisBP:0   MisRate:0.00%    MPKI:0.00
PC:1391a     Total:112      MisBP:0   MisRate:0.00%    MPKI:0.00
PC:d41a4     Total:12231      MisBP:0   MisRate:0.00%    MPKI:0.00
PC:1391e     Total:112      MisBP:0   MisRate:0.00%    MPKI:0.00
PC:d4194     Total:19      MisBP:0   MisRate:0.00%    MPKI:0.00
PC:3c1ae     Total:14      MisBP:0   MisRate:0.00%    MPKI:0.00
PC:d41ac     Total:30      MisBP:0   MisRate:0.00%    MPKI:0.00
PC:13926     Total:112      MisBP:0   MisRate:0.00%    MPKI:0.00
PC:3c1b2     Total:13      MisBP:0   MisRate:0.00%    MPKI:0.00
PC:d41b0     Total:28      MisBP:0   MisRate:0.00%    MPKI:0.00
PC:1392a     Total:112      MisBP:0   MisRate:0.00%    MPKI:0.00
PC:d41b4     Total:28      MisBP:0   MisRate:0.00%    MPKI:0.00
PC:1392e     Total:112      MisBP:0   MisRate:0.00%    MPKI:0.00
PC:d41b8     Total:32      MisBP:0   MisRate:0.00%    MPKI:0.00
PC:13904     Total:784      MisBP:0   MisRate:0.00%    MPKI:0.00
PC:19a68     Total:1      MisBP:0   MisRate:0.00%    MPKI:0.00
PC:56734     Total:1      MisBP:0   MisRate:0.00%    MPKI:0.00
PC:47672     Total:3      MisBP:0   MisRate:0.00%    MPKI:0.00
PC:bbc8c     Total:3      MisBP:0   MisRate:0.00%    MPKI:0.00
PC:19a6c     Total:1      MisBP:0   MisRate:0.00%    MPKI:0.00
PC:56738     Total:1      MisBP:0   MisRate:0.00%    MPKI:0.00
PC:47678     Total:2      MisBP:0   MisRate:0.00%    MPKI:0.00
PC:4767c     Total:12      MisBP:0   MisRate:0.00%    MPKI:0.00
PC:4597e     Total:1      MisBP:0   MisRate:0.00%    MPKI:0.00
PC:3c18c     Total:2539      MisBP:0   MisRate:0.00%    MPKI:0.00
PC:13932     Total:136      MisBP:0   MisRate:0.00%    MPKI:0.00
PC:13906     Total:112      MisBP:0   MisRate:0.00%    MPKI:0.00
PC:3c190     Total:2539      MisBP:0   MisRate:0.00%    MPKI:0.00
PC:d418e     Total:28      MisBP:0   MisRate:0.00%    MPKI:0.00
PC:13908     Total:112      MisBP:0   MisRate:0.00%    MPKI:0.00
PC:3c192     Total:2539      MisBP:0   MisRate:0.00%    MPKI:0.00
PC:1390a     Total:112      MisBP:0   MisRate:0.00%    MPKI:0.00
PC:d4192     Total:19      MisBP:0   MisRate:0.00%    MPKI:0.00
PC:1390c     Total:112      MisBP:0   MisRate:0.00%    MPKI:0.00
PC:3c196     Total:2539      MisBP:0   MisRate:0.00%    MPKI:0.00
PC:2fd12     Total:9      MisBP:0   MisRate:0.00%    MPKI:0.00
PC:d5586     Total:53      MisBP:0   MisRate:0.00%    MPKI:0.00
PC:d5588     Total:53      MisBP:0   MisRate:0.00%    MPKI:0.00
PC:2fd06     Total:11      MisBP:0   MisRate:0.00%    MPKI:0.00
PC:d558a     Total:53      MisBP:0   MisRate:0.00%    MPKI:0.00
PC:d558c     Total:53      MisBP:0   MisRate:0.00%    MPKI:0.00
PC:2fd0a     Total:9      MisBP:0   MisRate:0.00%    MPKI:0.00
PC:d5590     Total:53      MisBP:0   MisRate:0.00%    MPKI:0.00
PC:2fd0e     Total:9      MisBP:0   MisRate:0.00%    MPKI:0.00
PC:d5592     Total:53      MisBP:0   MisRate:0.00%    MPKI:0.00
PC:d5594     Total:51      MisBP:0   MisRate:0.00%    MPKI:0.00
PC:2fd00     Total:11      MisBP:0   MisRate:0.00%    MPKI:0.00
PC:d5596     Total:51      MisBP:0   MisRate:0.00%    MPKI:0.00
PC:d5598     Total:51      MisBP:0   MisRate:0.00%    MPKI:0.00
PC:2fd16     Total:9      MisBP:0   MisRate:0.00%    MPKI:0.00
PC:d559a     Total:51      MisBP:0   MisRate:0.00%    MPKI:0.00
PC:2fd18     Total:9      MisBP:0   MisRate:0.00%    MPKI:0.00
PC:d559c     Total:51      MisBP:0   MisRate:0.00%    MPKI:0.00
PC:d559e     Total:51      MisBP:0   MisRate:0.00%    MPKI:0.00
PC:2fd1c     Total:9      MisBP:0   MisRate:0.00%    MPKI:0.00
PC:d55a2     Total:48      MisBP:0   MisRate:0.00%    MPKI:0.00
PC:d3e0a     Total:1      MisBP:0   MisRate:0.00%    MPKI:0.00
PC:d41bc     Total:32      MisBP:0   MisRate:0.00%    MPKI:0.00
PC:3c1be     Total:8      MisBP:0   MisRate:0.00%    MPKI:0.00
PC:13936     Total:136      MisBP:0   MisRate:0.00%    MPKI:0.00
PC:3c1c2     Total:8      MisBP:0   MisRate:0.00%    MPKI:0.00
PC:d41c0     Total:25      MisBP:0   MisRate:0.00%    MPKI:0.00
PC:1393a     Total:127      MisBP:0   MisRate:0.00%    MPKI:0.00
PC:d3e00     Total:1      MisBP:0   MisRate:0.00%    MPKI:0.00
PC:d3e04     Total:1      MisBP:0   MisRate:0.00%    MPKI:0.00
PC:d3e08     Total:1      MisBP:0   MisRate:0.00%    MPKI:0.00
PC:bbc88     Total:3      MisBP:0   MisRate:0.00%    MPKI:0.00
PC:d3e0c     Total:1      MisBP:0   MisRate:0.00%    MPKI:0.00
PC:d3e0e     Total:1      MisBP:0   MisRate:0.00%    MPKI:0.00
PC:d3e12     Total:1      MisBP:0   MisRate:0.00%    MPKI:0.00
PC:d3e18     Total:1      MisBP:0   MisRate:0.00%    MPKI:0.00
PC:d3e1c     Total:1      MisBP:0   MisRate:0.00%    MPKI:0.00
PC:d3e30     Total:1      MisBP:0   MisRate:0.00%    MPKI:0.00
PC:10422     Total:612      MisBP:0   MisRate:0.00%    MPKI:0.00
PC:d5580     Total:53      MisBP:0   MisRate:0.00%    MPKI:0.00
PC:d5582     Total:53      MisBP:0   MisRate:0.00%    MPKI:0.00
PC:d43fa     Total:14      MisBP:0   MisRate:0.00%    MPKI:0.00
PC:46598     Total:196      MisBP:0   MisRate:0.00%    MPKI:0.00
PC:bff30     Total:2014      MisBP:0   MisRate:0.00%    MPKI:0.00
PC:4659c     Total:196      MisBP:0   MisRate:0.00%    MPKI:0.00
PC:bff34     Total:1007      MisBP:0   MisRate:0.00%    MPKI:0.00
PC:bff38     Total:1278      MisBP:0   MisRate:0.00%    MPKI:0.00
PC:bff3c     Total:639      MisBP:0   MisRate:0.00%    MPKI:0.00
PC:d43dc     Total:15      MisBP:0   MisRate:0.00%    MPKI:0.00
PC:d43e4     Total:15      MisBP:0   MisRate:0.00%    MPKI:0.00
PC:d43ea     Total:15      MisBP:0   MisRate:0.00%    MPKI:0.00
PC:d43ee     Total:14      MisBP:0   MisRate:0.00%    MPKI:0.00
PC:3c376     Total:536      MisBP:0   MisRate:0.00%    MPKI:0.00
PC:46660     Total:1      MisBP:0   MisRate:0.00%    MPKI:0.00
PC:d443c     Total:5      MisBP:0   MisRate:0.00%    MPKI:0.00
PC:d4462     Total:1      MisBP:0   MisRate:0.00%    MPKI:0.00
PC:d4464     Total:1      MisBP:0   MisRate:0.00%    MPKI:0.00
PC:d4466     Total:1      MisBP:0   MisRate:0.00%    MPKI:0.00
PC:475a4     Total:304      MisBP:0   MisRate:0.00%    MPKI:0.00
PC:befff5fc     Total:1      MisBP:0   MisRate:0.00%    MPKI:0.00
PC:ba6b8     Total:5623      MisBP:0   MisRate:0.00%    MPKI:0.00
PC:d8d1e     Total:2      MisBP:0   MisRate:0.00%    MPKI:0.00
PC:bff1c     Total:1076      MisBP:0   MisRate:0.00%    MPKI:0.00
PC:2e792     Total:225      MisBP:0   MisRate:0.00%    MPKI:0.00
PC:3c356     Total:6608      MisBP:0   MisRate:0.00%    MPKI:0.00
PC:bff10     Total:3228      MisBP:0   MisRate:0.00%    MPKI:0.00
PC:2e796     Total:225      MisBP:0   MisRate:0.00%    MPKI:0.00
PC:3c35a     Total:537      MisBP:0   MisRate:0.00%    MPKI:0.00
PC:bff14     Total:1076      MisBP:0   MisRate:0.00%    MPKI:0.00
PC:3c35e     Total:537      MisBP:0   MisRate:0.00%    MPKI:0.00
PC:bff18     Total:3228      MisBP:0   MisRate:0.00%    MPKI:0.00
PC:3c362     Total:537      MisBP:0   MisRate:0.00%    MPKI:0.00
PC:3d386     Total:2748      MisBP:0   MisRate:0.00%    MPKI:0.00
PC:3c366     Total:537      MisBP:0   MisRate:0.00%    MPKI:0.00
PC:bff20     Total:995      MisBP:0   MisRate:0.00%    MPKI:0.00
PC:3c36a     Total:536      MisBP:0   MisRate:0.00%    MPKI:0.00
PC:bff24     Total:1007      MisBP:0   MisRate:0.00%    MPKI:0.00
PC:3c36e     Total:536      MisBP:0   MisRate:0.00%    MPKI:0.00
PC:bff28     Total:2014      MisBP:0   MisRate:0.00%    MPKI:0.00
PC:3c372     Total:536      MisBP:0   MisRate:0.00%    MPKI:0.00
PC:46594     Total:196      MisBP:0   MisRate:0.00%    MPKI:0.00
PC:bff2c     Total:1007      MisBP:0   MisRate:0.00%    MPKI:0.00
PC:bbc6a     Total:5      MisBP:0   MisRate:0.00%    MPKI:0.00
PC:18382     Total:276      MisBP:0   MisRate:0.00%    MPKI:0.00
PC:efe98     Total:36      MisBP:0   MisRate:0.00%    MPKI:0.00
PC:47646     Total:30      MisBP:0   MisRate:0.00%    MPKI:0.00
PC:19a40     Total:15      MisBP:0   MisRate:0.00%    MPKI:0.00
PC:5670c     Total:71      MisBP:0   MisRate:0.00%    MPKI:0.00
PC:4764a     Total:3      MisBP:0   MisRate:0.00%    MPKI:0.00
PC:bbc64     Total:1      MisBP:0   MisRate:0.00%    MPKI:0.00
PC:19a44     Total:1      MisBP:0   MisRate:0.00%    MPKI:0.00
PC:56710     Total:68      MisBP:0   MisRate:0.00%    MPKI:0.00
PC:47650     Total:2      MisBP:0   MisRate:0.00%    MPKI:0.00
PC:c47c4     Total:17      MisBP:0   MisRate:0.00%    MPKI:0.00
PC:19a4a     Total:1      MisBP:0   MisRate:0.00%    MPKI:0.00
PC:56716     Total:1      MisBP:0   MisRate:0.00%    MPKI:0.00
PC:47654     Total:292      MisBP:0   MisRate:0.00%    MPKI:0.00
PC:19a4e     Total:1      MisBP:0   MisRate:0.00%    MPKI:0.00
PC:5671a     Total:1      MisBP:0   MisRate:0.00%    MPKI:0.00
PC:56724     Total:1      MisBP:0   MisRate:0.00%    MPKI:0.00
PC:bbc7c     Total:5      MisBP:0   MisRate:0.00%    MPKI:0.00
PC:56728     Total:1      MisBP:0   MisRate:0.00%    MPKI:0.00
PC:4766e     Total:393      MisBP:0   MisRate:0.00%    MPKI:0.00
PC:3d392     Total:2748      MisBP:0   MisRate:0.00%    MPKI:0.00
PC:475a8     Total:304      MisBP:0   MisRate:0.00%    MPKI:0.00
PC:475ac     Total:304      MisBP:0   MisRate:0.00%    MPKI:0.00
PC:befff604     Total:1      MisBP:0   MisRate:0.00%    MPKI:0.00
PC:ba6c0     Total:5502      MisBP:0   MisRate:0.00%    MPKI:0.00
PC:d8d26     Total:2      MisBP:0   MisRate:0.00%    MPKI:0.00
PC:3d38e     Total:2748      MisBP:0   MisRate:0.00%    MPKI:0.00
PC:475b0     Total:406      MisBP:0   MisRate:0.00%    MPKI:0.00
PC:befff608     Total:1      MisBP:0   MisRate:0.00%    MPKI:0.00
PC:d8d2a     Total:2      MisBP:0   MisRate:0.00%    MPKI:0.00
PC:d417c     Total:11435      MisBP:0   MisRate:0.00%    MPKI:0.00
PC:475b4     Total:406      MisBP:0   MisRate:0.00%    MPKI:0.00
PC:3d396     Total:2722      MisBP:0   MisRate:0.00%    MPKI:0.00
PC:475b8     Total:406      MisBP:0   MisRate:0.00%    MPKI:0.00
PC:475c0     Total:401      MisBP:0   MisRate:0.00%    MPKI:0.00
PC:befff618     Total:1      MisBP:0   MisRate:0.00%    MPKI:0.00
PC:d8d3a     Total:1      MisBP:0   MisRate:0.00%    MPKI:0.00
PC:bbc54     Total:1      MisBP:0   MisRate:0.00%    MPKI:0.00
PC:19a34     Total:25      MisBP:0   MisRate:0.00%    MPKI:0.00
PC:efe96     Total:36      MisBP:0   MisRate:0.00%    MPKI:0.00
PC:d52ec     Total:5333      MisBP:0   MisRate:0.00%    MPKI:0.00
PC:d52d8     Total:5333      MisBP:0   MisRate:0.00%    MPKI:0.00
PC:2fa56     Total:12      MisBP:0   MisRate:0.00%    MPKI:0.00
PC:d52da     Total:5333      MisBP:0   MisRate:0.00%    MPKI:0.00
PC:d52dc     Total:5333      MisBP:0   MisRate:0.00%    MPKI:0.00
PC:2fa5a     Total:11      MisBP:0   MisRate:0.00%    MPKI:0.00
PC:d52de     Total:5333      MisBP:0   MisRate:0.00%    MPKI:0.00
PC:d52e2     Total:5333      MisBP:0   MisRate:0.00%    MPKI:0.00
PC:d52e6     Total:5333      MisBP:0   MisRate:0.00%    MPKI:0.00
PC:d52e8     Total:5333      MisBP:0   MisRate:0.00%    MPKI:0.00
PC:2fa66     Total:10      MisBP:0   MisRate:0.00%    MPKI:0.00
PC:2fa52     Total:11      MisBP:0   MisRate:0.00%    MPKI:0.00
PC:d52f0     Total:5333      MisBP:0   MisRate:0.00%    MPKI:0.00
PC:447dc     Total:1      MisBP:0   MisRate:0.00%    MPKI:0.00
PC:3df5a     Total:213      MisBP:0   MisRate:0.00%    MPKI:0.00
PC:d5f58     Total:8152      MisBP:0   MisRate:0.00%    MPKI:0.00
PC:b7dcc     Total:2275      MisBP:0   MisRate:0.00%    MPKI:0.00
PC:447de     Total:1      MisBP:0   MisRate:0.00%    MPKI:0.00
PC:3df5e     Total:422      MisBP:0   MisRate:0.00%    MPKI:0.00
PC:d5f5c     Total:8152      MisBP:0   MisRate:0.00%    MPKI:0.00
PC:b7dd0     Total:322      MisBP:0   MisRate:0.00%    MPKI:0.00
PC:d4238     Total:3      MisBP:0   MisRate:0.00%    MPKI:0.00
PC:d3636     Total:9427      MisBP:0   MisRate:0.00%    MPKI:0.00
PC:d364c     Total:9384      MisBP:0   MisRate:0.00%    MPKI:0.00
PC:19d7c     Total:208      MisBP:0   MisRate:0.00%    MPKI:0.00
PC:d8748     Total:13      MisBP:0   MisRate:0.00%    MPKI:0.00
PC:19d80     Total:206      MisBP:0   MisRate:0.00%    MPKI:0.00
PC:d874c     Total:13      MisBP:0   MisRate:0.00%    MPKI:0.00
PC:19d82     Total:206      MisBP:0   MisRate:0.00%    MPKI:0.00
PC:19d86     Total:206      MisBP:0   MisRate:0.00%    MPKI:0.00
PC:d8752     Total:27      MisBP:0   MisRate:0.00%    MPKI:0.00
PC:19d8e     Total:232      MisBP:0   MisRate:0.00%    MPKI:0.00
PC:447e2     Total:1      MisBP:0   MisRate:0.00%    MPKI:0.00
PC:d423c     Total:3      MisBP:0   MisRate:0.00%    MPKI:0.00
PC:19d94     Total:206      MisBP:0   MisRate:0.00%    MPKI:0.00
PC:d5d06     Total:24111      MisBP:0   MisRate:0.00%    MPKI:0.00
PC:b88d0     Total:11763      MisBP:0   MisRate:0.00%    MPKI:0.00
PC:d3dfa     Total:2      MisBP:0   MisRate:0.00%    MPKI:0.00
PC:d52cc     Total:8163      MisBP:0   MisRate:0.00%    MPKI:0.00
PC:d52ce     Total:8163      MisBP:0   MisRate:0.00%    MPKI:0.00
PC:2fa4c     Total:11      MisBP:0   MisRate:0.00%    MPKI:0.00
PC:d52d4     Total:5333      MisBP:0   MisRate:0.00%    MPKI:0.00
PC:3df70     Total:211      MisBP:0   MisRate:0.00%    MPKI:0.00
PC:3df6c     Total:211      MisBP:0   MisRate:0.00%    MPKI:0.00
PC:d5f6a     Total:1      MisBP:0   MisRate:0.00%    MPKI:0.00
PC:b7dde     Total:322      MisBP:0   MisRate:0.00%    MPKI:0.00
PC:447f0     Total:1      MisBP:0   MisRate:0.00%    MPKI:0.00
PC:45e60     Total:2141      MisBP:0   MisRate:0.00%    MPKI:0.00
PC:3df6e     Total:211      MisBP:0   MisRate:0.00%    MPKI:0.00
PC:d5f6c     Total:1      MisBP:0   MisRate:0.00%    MPKI:0.00
PC:b7de0     Total:231      MisBP:0   MisRate:0.00%    MPKI:0.00
PC:d3c3e     Total:2      MisBP:0   MisRate:0.00%    MPKI:0.00
PC:45e62     Total:2135      MisBP:0   MisRate:0.00%    MPKI:0.00
PC:45e5e     Total:2220      MisBP:0   MisRate:0.00%    MPKI:0.00
PC:d5f6e     Total:1      MisBP:0   MisRate:0.00%    MPKI:0.00
PC:b7de2     Total:231      MisBP:0   MisRate:0.00%    MPKI:0.00
PC:3df74     Total:211      MisBP:0   MisRate:0.00%    MPKI:0.00
PC:d5f72     Total:1      MisBP:0   MisRate:0.00%    MPKI:0.00
PC:45e6a     Total:16410      MisBP:0   MisRate:0.00%    MPKI:0.00
PC:3df78     Total:211      MisBP:0   MisRate:0.00%    MPKI:0.00
PC:d5f76     Total:1      MisBP:0   MisRate:0.00%    MPKI:0.00
PC:b7dea     Total:89      MisBP:0   MisRate:0.00%    MPKI:0.00
PC:d5f26     Total:1      MisBP:0   MisRate:0.00%    MPKI:0.00
PC:b7dd8     Total:322      MisBP:0   MisRate:0.00%    MPKI:0.00
PC:3df60     Total:211      MisBP:0   MisRate:0.00%    MPKI:0.00
PC:d5f5e     Total:8152      MisBP:0   MisRate:0.00%    MPKI:0.00
PC:b7dd2     Total:322      MisBP:0   MisRate:0.00%    MPKI:0.00
PC:3df62     Total:211      MisBP:0   MisRate:0.00%    MPKI:0.00
PC:d5f60     Total:8152      MisBP:0   MisRate:0.00%    MPKI:0.00
PC:b7dd4     Total:322      MisBP:0   MisRate:0.00%    MPKI:0.00
PC:447e6     Total:1      MisBP:0   MisRate:0.00%    MPKI:0.00
PC:3df66     Total:422      MisBP:0   MisRate:0.00%    MPKI:0.00
PC:d5f64     Total:8152      MisBP:0   MisRate:0.00%    MPKI:0.00
PC:d7528     Total:2      MisBP:0   MisRate:0.00%    MPKI:0.00
PC:447ea     Total:1      MisBP:0   MisRate:0.00%    MPKI:0.00
PC:d5f66     Total:1      MisBP:0   MisRate:0.00%    MPKI:0.00
PC:b7dda     Total:322      MisBP:0   MisRate:0.00%    MPKI:0.00
PC:45e5c     Total:15548      MisBP:0   MisRate:0.00%    MPKI:0.00
PC:3df6a     Total:211      MisBP:0   MisRate:0.00%    MPKI:0.00
PC:d5f68     Total:1      MisBP:0   MisRate:0.00%    MPKI:0.00
PC:b7ddc     Total:322      MisBP:0   MisRate:0.00%    MPKI:0.00
PC:447ee     Total:1      MisBP:0   MisRate:0.00%    MPKI:0.00
PC:d3c3a     Total:2      MisBP:0   MisRate:0.00%    MPKI:0.00
PC:d8012     Total:33      MisBP:0   MisRate:0.00%    MPKI:0.00
PC:4478e     Total:66      MisBP:0   MisRate:0.00%    MPKI:0.00
PC:beec2     Total:27      MisBP:0   MisRate:0.00%    MPKI:0.00
PC:d800c     Total:13      MisBP:0   MisRate:0.00%    MPKI:0.00
PC:beec4     Total:27      MisBP:0   MisRate:0.00%    MPKI:0.00
PC:d800e     Total:33      MisBP:0   MisRate:0.00%    MPKI:0.00
PC:d5f0c     Total:8359      MisBP:0   MisRate:0.00%    MPKI:0.00
PC:44792     Total:46      MisBP:0   MisRate:0.00%    MPKI:0.00
PC:beec6     Total:27      MisBP:0   MisRate:0.00%    MPKI:0.00
PC:d8010     Total:33      MisBP:0   MisRate:0.00%    MPKI:0.00
PC:beec8     Total:27      MisBP:0   MisRate:0.00%    MPKI:0.00
PC:d5f08     Total:8359      MisBP:0   MisRate:0.00%    MPKI:0.00
PC:beecc     Total:27      MisBP:0   MisRate:0.00%    MPKI:0.00
PC:d8016     Total:30      MisBP:0   MisRate:0.00%    MPKI:0.00
PC:d8018     Total:30      MisBP:0   MisRate:0.00%    MPKI:0.00
PC:beed0     Total:27      MisBP:0   MisRate:0.00%    MPKI:0.00
PC:d801a     Total:29      MisBP:0   MisRate:0.00%    MPKI:0.00
PC:beed2     Total:27      MisBP:0   MisRate:0.00%    MPKI:0.00
PC:d801c     Total:29      MisBP:0   MisRate:0.00%    MPKI:0.00
PC:beed4     Total:27      MisBP:0   MisRate:0.00%    MPKI:0.00
PC:beed6     Total:27      MisBP:0   MisRate:0.00%    MPKI:0.00
PC:d3ccc     Total:16061      MisBP:0   MisRate:0.00%    MPKI:0.00
PC:b8796     Total:4540      MisBP:0   MisRate:0.00%    MPKI:0.00
PC:3c18a     Total:2539      MisBP:0   MisRate:0.00%    MPKI:0.00
PC:d4188     Total:11492      MisBP:0   MisRate:0.00%    MPKI:0.00
PC:b8798     Total:4540      MisBP:0   MisRate:0.00%    MPKI:0.00
PC:d3cc8     Total:16061      MisBP:0   MisRate:0.00%    MPKI:0.00
PC:befff5e8     Total:1      MisBP:0   MisRate:0.00%    MPKI:0.00
PC:d8d0a     Total:2      MisBP:0   MisRate:0.00%    MPKI:0.00
PC:b879e     Total:7572      MisBP:0   MisRate:0.00%    MPKI:0.00
PC:d692a     Total:9258      MisBP:0   MisRate:0.00%    MPKI:0.00
PC:d8020     Total:25      MisBP:0   MisRate:0.00%    MPKI:0.00
PC:b87a2     Total:7572      MisBP:0   MisRate:0.00%    MPKI:0.00
PC:b87a4     Total:60214      MisBP:0   MisRate:0.00%    MPKI:0.00
PC:d419e     Total:12231      MisBP:0   MisRate:0.00%    MPKI:0.00
PC:3c1a4     Total:2585      MisBP:0   MisRate:0.00%    MPKI:0.00
PC:d41a2     Total:12231      MisBP:0   MisRate:0.00%    MPKI:0.00
PC:3c1a8     Total:2585      MisBP:0   MisRate:0.00%    MPKI:0.00
PC:d41aa     Total:30      MisBP:0   MisRate:0.00%    MPKI:0.00
PC:beec0     Total:55      MisBP:0   MisRate:0.00%    MPKI:0.00
PC:d800a     Total:13      MisBP:0   MisRate:0.00%    MPKI:0.00
PC:bcd92     Total:30817      MisBP:0   MisRate:0.00%    MPKI:0.00
PC:befff5f0     Total:1      MisBP:0   MisRate:0.00%    MPKI:0.00
PC:d8d12     Total:2      MisBP:0   MisRate:0.00%    MPKI:0.00
PC:d6932     Total:5      MisBP:0   MisRate:0.00%    MPKI:0.00
PC:bcd6e     Total:31187      MisBP:0   MisRate:0.00%    MPKI:0.00
PC:d5ada     Total:465      MisBP:0   MisRate:0.00%    MPKI:0.00
PC:44360     Total:3      MisBP:0   MisRate:0.00%    MPKI:0.00
PC:bcd80     Total:30904      MisBP:0   MisRate:0.00%    MPKI:0.00
PC:bcd8a     Total:30904      MisBP:0   MisRate:0.00%    MPKI:0.00
PC:4475a     Total:187      MisBP:0   MisRate:0.00%    MPKI:0.00
PC:bcd8c     Total:30895      MisBP:0   MisRate:0.00%    MPKI:0.00
PC:d3cd0     Total:16061      MisBP:0   MisRate:0.00%    MPKI:0.00
PC:d5afe     Total:10482      MisBP:0   MisRate:0.00%    MPKI:0.00
PC:bcd9a     Total:32607      MisBP:0   MisRate:0.00%    MPKI:0.00
PC:d7526     Total:2      MisBP:0   MisRate:0.00%    MPKI:0.00
PC:d3634     Total:65989      MisBP:0   MisRate:0.00%    MPKI:0.00
PC:e2898     Total:23      MisBP:0   MisRate:0.00%    MPKI:0.00
PC:d8676     Total:2      MisBP:0   MisRate:0.00%    MPKI:0.00
PC:bcd9c     Total:32606      MisBP:0   MisRate:0.00%    MPKI:0.00
PC:4476c     Total:602      MisBP:0   MisRate:0.00%    MPKI:0.00
PC:d5b08     Total:10451      MisBP:0   MisRate:0.00%    MPKI:0.00
PC:ae6fa     Total:6      MisBP:0   MisRate:0.00%    MPKI:0.00
PC:beed8     Total:7      MisBP:0   MisRate:0.00%    MPKI:0.00
PC:d8022     Total:25      MisBP:0   MisRate:0.00%    MPKI:0.00
PC:beeda     Total:7      MisBP:0   MisRate:0.00%    MPKI:0.00
PC:d8024     Total:25      MisBP:0   MisRate:0.00%    MPKI:0.00
PC:beedc     Total:34      MisBP:0   MisRate:0.00%    MPKI:0.00
PC:d8026     Total:20      MisBP:0   MisRate:0.00%    MPKI:0.00
PC:d41ae     Total:29      MisBP:0   MisRate:0.00%    MPKI:0.00
PC:d3ca8     Total:16547      MisBP:0   MisRate:0.00%    MPKI:0.00
PC:b877e     Total:358      MisBP:0   MisRate:0.00%    MPKI:0.00
PC:447ac     Total:27      MisBP:0   MisRate:0.00%    MPKI:0.00
PC:b8782     Total:358      MisBP:0   MisRate:0.00%    MPKI:0.00
PC:b8920     Total:58980      MisBP:0   MisRate:0.00%    MPKI:0.00
PC:ae6fe     Total:6      MisBP:0   MisRate:0.00%    MPKI:0.00
PC:b8788     Total:358      MisBP:0   MisRate:0.00%    MPKI:0.00
PC:b8790     Total:382      MisBP:0   MisRate:0.00%    MPKI:0.00
PC:b8794     Total:4540      MisBP:0   MisRate:0.00%    MPKI:0.00
PC:b879c     Total:7572      MisBP:0   MisRate:0.00%    MPKI:0.00
PC:46548     Total:21      MisBP:0   MisRate:0.00%    MPKI:0.00
PC:bfee0     Total:2476      MisBP:0   MisRate:0.00%    MPKI:0.00
PC:d477e     Total:11242      MisBP:0   MisRate:0.00%    MPKI:0.00
PC:d475c     Total:11904      MisBP:0   MisRate:0.00%    MPKI:0.00
PC:b69b2     Total:1      MisBP:0   MisRate:0.00%    MPKI:0.00
PC:d4760     Total:11906      MisBP:0   MisRate:0.00%    MPKI:0.00
PC:d4774     Total:11243      MisBP:0   MisRate:0.00%    MPKI:0.00
PC:1a2cc     Total:200      MisBP:0   MisRate:0.00%    MPKI:0.00
PC:d4776     Total:11243      MisBP:0   MisRate:0.00%    MPKI:0.00
PC:d4778     Total:11243      MisBP:0   MisRate:0.00%    MPKI:0.00
PC:1a2d0     Total:200      MisBP:0   MisRate:0.00%    MPKI:0.00
PC:d477a     Total:11242      MisBP:0   MisRate:0.00%    MPKI:0.00
PC:1a2d4     Total:200      MisBP:0   MisRate:0.00%    MPKI:0.00
PC:b69ae     Total:1      MisBP:0   MisRate:0.00%    MPKI:0.00
PC:bb35a     Total:598      MisBP:0   MisRate:0.00%    MPKI:0.00
PC:bb35c     Total:598      MisBP:0   MisRate:0.00%    MPKI:0.00
PC:bb362     Total:651      MisBP:0   MisRate:0.00%    MPKI:0.00
PC:d688c     Total:1      MisBP:0   MisRate:0.00%    MPKI:0.00
PC:1384a     Total:116      MisBP:0   MisRate:0.00%    MPKI:0.00
PC:d40d0     Total:1399      MisBP:0   MisRate:0.00%    MPKI:0.00
PC:bb364     Total:651      MisBP:0   MisRate:0.00%    MPKI:0.00
PC:d688e     Total:1      MisBP:0   MisRate:0.00%    MPKI:0.00
PC:55e14     Total:2455      MisBP:0   MisRate:0.00%    MPKI:0.00
PC:b6958     Total:182      MisBP:0   MisRate:0.00%    MPKI:0.00
PC:45564     Total:196      MisBP:0   MisRate:0.00%    MPKI:0.00
PC:d5736     Total:1      MisBP:0   MisRate:0.00%    MPKI:0.00
PC:4a5ac     Total:6502      MisBP:0   MisRate:0.00%    MPKI:0.00
PC:d573c     Total:27      MisBP:0   MisRate:0.00%    MPKI:0.00
PC:1a24e     Total:204      MisBP:0   MisRate:0.00%    MPKI:0.00
PC:10360     Total:8137      MisBP:0   MisRate:0.00%    MPKI:0.00
PC:47636     Total:405      MisBP:0   MisRate:0.00%    MPKI:0.00
PC:bbc50     Total:1      MisBP:0   MisRate:0.00%    MPKI:0.00
PC:19a30     Total:25      MisBP:0   MisRate:0.00%    MPKI:0.00
PC:566fc     Total:70      MisBP:0   MisRate:0.00%    MPKI:0.00
PC:bb368     Total:651      MisBP:0   MisRate:0.00%    MPKI:0.00
PC:b6986     Total:358      MisBP:0   MisRate:0.00%    MPKI:0.00
PC:a758c     Total:280      MisBP:0   MisRate:0.00%    MPKI:0.00
PC:bb9d0     Total:3      MisBP:0   MisRate:0.00%    MPKI:0.00
PC:b698e     Total:358      MisBP:0   MisRate:0.00%    MPKI:0.00
PC:bcd8e     Total:30895      MisBP:0   MisRate:0.00%    MPKI:0.00
PC:4475e     Total:187      MisBP:0   MisRate:0.00%    MPKI:0.00
PC:bcd96     Total:32607      MisBP:0   MisRate:0.00%    MPKI:0.00
PC:bcda0     Total:32606      MisBP:0   MisRate:0.00%    MPKI:0.00
PC:44770     Total:170      MisBP:0   MisRate:0.00%    MPKI:0.00
PC:d692c     Total:9258      MisBP:0   MisRate:0.00%    MPKI:0.00
PC:a7546     Total:12      MisBP:0   MisRate:0.00%    MPKI:0.00
PC:1a2f4     Total:364      MisBP:0   MisRate:0.00%    MPKI:0.00
PC:d3c7e     Total:806      MisBP:0   MisRate:0.00%    MPKI:0.00
PC:a754c     Total:12      MisBP:0   MisRate:0.00%    MPKI:0.00
PC:1a308     Total:210      MisBP:0   MisRate:0.00%    MPKI:0.00
PC:d3c92     Total:2      MisBP:0   MisRate:0.00%    MPKI:0.00
PC:d47b2     Total:9730      MisBP:0   MisRate:0.00%    MPKI:0.00
PC:1a30c     Total:210      MisBP:0   MisRate:0.00%    MPKI:0.00
PC:d3c96     Total:2      MisBP:0   MisRate:0.00%    MPKI:0.00
PC:d47b6     Total:9730      MisBP:0   MisRate:0.00%    MPKI:0.00
PC:d478a     Total:11439      MisBP:0   MisRate:0.00%    MPKI:0.00
PC:3c172     Total:2782      MisBP:0   MisRate:0.00%    MPKI:0.00
PC:d4170     Total:11386      MisBP:0   MisRate:0.00%    MPKI:0.00
PC:3c176     Total:2613      MisBP:0   MisRate:0.00%    MPKI:0.00
PC:d4174     Total:11386      MisBP:0   MisRate:0.00%    MPKI:0.00
PC:3c178     Total:2613      MisBP:0   MisRate:0.00%    MPKI:0.00
PC:d4176     Total:11385      MisBP:0   MisRate:0.00%    MPKI:0.00
PC:d6934     Total:5      MisBP:0   MisRate:0.00%    MPKI:0.00
PC:d417a     Total:11436      MisBP:0   MisRate:0.00%    MPKI:0.00
PC:3c17e     Total:2613      MisBP:0   MisRate:0.00%    MPKI:0.00
PC:d68a6     Total:1      MisBP:0   MisRate:0.00%    MPKI:0.00
PC:d6892     Total:1      MisBP:0   MisRate:0.00%    MPKI:0.00
PC:d6894     Total:1      MisBP:0   MisRate:0.00%    MPKI:0.00
PC:d6898     Total:1      MisBP:0   MisRate:0.00%    MPKI:0.00
PC:d689c     Total:1      MisBP:0   MisRate:0.00%    MPKI:0.00
PC:d40e0     Total:1458      MisBP:0   MisRate:0.00%    MPKI:0.00
PC:d689e     Total:1      MisBP:0   MisRate:0.00%    MPKI:0.00
PC:d68a0     Total:1      MisBP:0   MisRate:0.00%    MPKI:0.00
PC:d40e6     Total:1458      MisBP:0   MisRate:0.00%    MPKI:0.00
PC:d68a4     Total:1      MisBP:0   MisRate:0.00%    MPKI:0.00
PC:beefc     Total:32      MisBP:0   MisRate:0.00%    MPKI:0.00
PC:d40ea     Total:1554      MisBP:0   MisRate:0.00%    MPKI:0.00
PC:d68a8     Total:1      MisBP:0   MisRate:0.00%    MPKI:0.00
PC:d68aa     Total:1      MisBP:0   MisRate:0.00%    MPKI:0.00
PC:d40ee     Total:1554      MisBP:0   MisRate:0.00%    MPKI:0.00
PC:d68ac     Total:1      MisBP:0   MisRate:0.00%    MPKI:0.00
PC:d4780     Total:10976      MisBP:0   MisRate:0.00%    MPKI:0.00
PC:1a2d8     Total:499      MisBP:0   MisRate:0.00%    MPKI:0.00
PC:1a2dc     Total:499      MisBP:0   MisRate:0.00%    MPKI:0.00
PC:1a2e0     Total:498      MisBP:0   MisRate:0.00%    MPKI:0.00
PC:d869c     Total:6      MisBP:0   MisRate:0.00%    MPKI:0.00
PC:4a566     Total:16854      MisBP:0   MisRate:0.00%    MPKI:0.00
PC:d56f6     Total:11867      MisBP:0   MisRate:0.00%    MPKI:0.00
PC:d56fa     Total:11867      MisBP:0   MisRate:0.00%    MPKI:0.00
PC:d8348     Total:6      MisBP:0   MisRate:0.00%    MPKI:0.00
PC:4a56c     Total:14980      MisBP:0   MisRate:0.00%    MPKI:0.00
PC:d56fc     Total:11867      MisBP:0   MisRate:0.00%    MPKI:0.00
PC:4a56e     Total:14980      MisBP:0   MisRate:0.00%    MPKI:0.00
PC:d56fe     Total:11867      MisBP:0   MisRate:0.00%    MPKI:0.00
PC:d365a     Total:628      MisBP:0   MisRate:0.00%    MPKI:0.00
PC:e28be     Total:6      MisBP:0   MisRate:0.00%    MPKI:0.00
PC:d8342     Total:6      MisBP:0   MisRate:0.00%    MPKI:0.00
PC:d3666     Total:5      MisBP:0   MisRate:0.00%    MPKI:0.00
PC:45d1c     Total:1842      MisBP:0   MisRate:0.00%    MPKI:0.00
PC:d7496     Total:16      MisBP:0   MisRate:0.00%    MPKI:0.00
PC:d366a     Total:5      MisBP:0   MisRate:0.00%    MPKI:0.00
PC:d369e     Total:7961      MisBP:0   MisRate:0.00%    MPKI:0.00
PC:458c6     Total:3148      MisBP:0   MisRate:0.00%    MPKI:0.00
PC:d36a2     Total:7961      MisBP:0   MisRate:0.00%    MPKI:0.00
PC:458ca     Total:3148      MisBP:0   MisRate:0.00%    MPKI:0.00
PC:d36a6     Total:15936      MisBP:0   MisRate:0.00%    MPKI:0.00
PC:d56e8     Total:9295      MisBP:0   MisRate:0.00%    MPKI:0.00
PC:d50d0     Total:175      MisBP:0   MisRate:0.00%    MPKI:0.00
PC:bcd64     Total:33757      MisBP:0   MisRate:0.00%    MPKI:0.00
PC:d5ad0     Total:465      MisBP:0   MisRate:0.00%    MPKI:0.00
PC:44356     Total:84      MisBP:0   MisRate:0.00%    MPKI:0.00
PC:bcd68     Total:33141      MisBP:0   MisRate:0.00%    MPKI:0.00
PC:d5ad4     Total:465      MisBP:0   MisRate:0.00%    MPKI:0.00
PC:4435a     Total:83      MisBP:0   MisRate:0.00%    MPKI:0.00
PC:d56e0     Total:9295      MisBP:0   MisRate:0.00%    MPKI:0.00
PC:4a558     Total:16849      MisBP:0   MisRate:0.00%    MPKI:0.00
PC:458ce     Total:6348      MisBP:0   MisRate:0.00%    MPKI:0.00
PC:4a55c     Total:16849      MisBP:0   MisRate:0.00%    MPKI:0.00
PC:d56ec     Total:9295      MisBP:0   MisRate:0.00%    MPKI:0.00
PC:d56ee     Total:9295      MisBP:0   MisRate:0.00%    MPKI:0.00
PC:d833c     Total:6      MisBP:0   MisRate:0.00%    MPKI:0.00
PC:4a560     Total:16849      MisBP:0   MisRate:0.00%    MPKI:0.00
PC:d56f0     Total:9467      MisBP:0   MisRate:0.00%    MPKI:0.00
PC:d833e     Total:6      MisBP:0   MisRate:0.00%    MPKI:0.00
PC:4a562     Total:16849      MisBP:0   MisRate:0.00%    MPKI:0.00
PC:d56f2     Total:9465      MisBP:0   MisRate:0.00%    MPKI:0.00
PC:d570e     Total:10395      MisBP:0   MisRate:0.00%    MPKI:0.00
PC:e2924     Total:2      MisBP:0   MisRate:0.00%    MPKI:0.00
PC:d8702     Total:6      MisBP:0   MisRate:0.00%    MPKI:0.00
PC:458e6     Total:756      MisBP:0   MisRate:0.00%    MPKI:0.00
PC:d36c2     Total:52470      MisBP:0   MisRate:0.00%    MPKI:0.00
PC:d8704     Total:6      MisBP:0   MisRate:0.00%    MPKI:0.00
PC:d5700     Total:11736      MisBP:0   MisRate:0.00%    MPKI:0.00
PC:d834e     Total:6      MisBP:0   MisRate:0.00%    MPKI:0.00
PC:4a572     Total:77913      MisBP:0   MisRate:0.00%    MPKI:0.00
PC:d5702     Total:11736      MisBP:0   MisRate:0.00%    MPKI:0.00
PC:d5706     Total:11736      MisBP:0   MisRate:0.00%    MPKI:0.00
PC:d36c0     Total:10494      MisBP:0   MisRate:0.00%    MPKI:0.00
PC:4a584     Total:202      MisBP:0   MisRate:0.00%    MPKI:0.00
PC:d5714     Total:623      MisBP:0   MisRate:0.00%    MPKI:0.00
PC:d5716     Total:623      MisBP:0   MisRate:0.00%    MPKI:0.00
PC:beeec     Total:33      MisBP:0   MisRate:0.00%    MPKI:0.00
PC:45554     Total:196      MisBP:0   MisRate:0.00%    MPKI:0.00
PC:d5726     Total:1      MisBP:0   MisRate:0.00%    MPKI:0.00
PC:4555c     Total:196      MisBP:0   MisRate:0.00%    MPKI:0.00
PC:d572e     Total:1      MisBP:0   MisRate:0.00%    MPKI:0.00
PC:4a5a6     Total:6507      MisBP:0   MisRate:0.00%    MPKI:0.00
PC:458da     Total:1      MisBP:0   MisRate:0.00%    MPKI:0.00
PC:d36aa     Total:15936      MisBP:0   MisRate:0.00%    MPKI:0.00
PC:d36ac     Total:15936      MisBP:0   MisRate:0.00%    MPKI:0.00
PC:458d2     Total:3174      MisBP:0   MisRate:0.00%    MPKI:0.00
PC:d36ae     Total:15936      MisBP:0   MisRate:0.00%    MPKI:0.00
PC:458d6     Total:2      MisBP:0   MisRate:0.00%    MPKI:0.00
PC:d36b2     Total:15936      MisBP:0   MisRate:0.00%    MPKI:0.00
PC:e2916     Total:2      MisBP:0   MisRate:0.00%    MPKI:0.00
PC:d86f4     Total:6      MisBP:0   MisRate:0.00%    MPKI:0.00
PC:d36b4     Total:15936      MisBP:0   MisRate:0.00%    MPKI:0.00
PC:2fd20     Total:9      MisBP:0   MisRate:0.00%    MPKI:0.00
PC:d36b6     Total:15876      MisBP:0   MisRate:0.00%    MPKI:0.00
PC:e291a     Total:2      MisBP:0   MisRate:0.00%    MPKI:0.00
PC:d86f8     Total:6      MisBP:0   MisRate:0.00%    MPKI:0.00
PC:458dc     Total:809      MisBP:0   MisRate:0.00%    MPKI:0.00
PC:d36b8     Total:31701      MisBP:0   MisRate:0.00%    MPKI:0.00
PC:d36bc     Total:15846      MisBP:0   MisRate:0.00%    MPKI:0.00
PC:458e2     Total:756      MisBP:0   MisRate:0.00%    MPKI:0.00
PC:e2922     Total:2      MisBP:0   MisRate:0.00%    MPKI:0.00
PC:d8700     Total:6      MisBP:0   MisRate:0.00%    MPKI:0.00
PC:b72f0     Total:411      MisBP:0   MisRate:0.00%    MPKI:0.00
PC:2fbec     Total:12      MisBP:0   MisRate:0.00%    MPKI:0.00
PC:b72e4     Total:389      MisBP:0   MisRate:0.00%    MPKI:0.00
PC:2fbee     Total:12      MisBP:0   MisRate:0.00%    MPKI:0.00
PC:b72e6     Total:387      MisBP:0   MisRate:0.00%    MPKI:0.00
PC:2fbf0     Total:12      MisBP:0   MisRate:0.00%    MPKI:0.00
PC:b72ea     Total:412      MisBP:0   MisRate:0.00%    MPKI:0.00
PC:2fbf4     Total:11      MisBP:0   MisRate:0.00%    MPKI:0.00
PC:b72ec     Total:412      MisBP:0   MisRate:0.00%    MPKI:0.00
PC:2fbf6     Total:11      MisBP:0   MisRate:0.00%    MPKI:0.00
PC:b72ee     Total:411      MisBP:0   MisRate:0.00%    MPKI:0.00
PC:b72e2     Total:389      MisBP:0   MisRate:0.00%    MPKI:0.00
PC:2fbfa     Total:11      MisBP:0   MisRate:0.00%    MPKI:0.00
PC:b72f2     Total:410      MisBP:0   MisRate:0.00%    MPKI:0.00
PC:2fbfe     Total:9      MisBP:0   MisRate:0.00%    MPKI:0.00
PC:b72f6     Total:91      MisBP:0   MisRate:0.00%    MPKI:0.00
PC:b72fa     Total:91      MisBP:0   MisRate:0.00%    MPKI:0.00
PC:c7f30     Total:320      MisBP:0   MisRate:0.00%    MPKI:0.00
PC:c7f34     Total:320      MisBP:0   MisRate:0.00%    MPKI:0.00
PC:c7f36     Total:320      MisBP:0   MisRate:0.00%    MPKI:0.00
PC:c7f3a     Total:320      MisBP:0   MisRate:0.00%    MPKI:0.00
PC:2fbdc     Total:14      MisBP:0   MisRate:0.00%    MPKI:0.00
PC:b6984     Total:358      MisBP:0   MisRate:0.00%    MPKI:0.00
PC:b6988     Total:358      MisBP:0   MisRate:0.00%    MPKI:0.00
PC:b698c     Total:358      MisBP:0   MisRate:0.00%    MPKI:0.00
PC:b699e     Total:327      MisBP:0   MisRate:0.00%    MPKI:0.00
PC:b72cc     Total:1267      MisBP:0   MisRate:0.00%    MPKI:0.00
PC:2fbd6     Total:15      MisBP:0   MisRate:0.00%    MPKI:0.00
PC:b72ce     Total:181      MisBP:0   MisRate:0.00%    MPKI:0.00
PC:2fbd8     Total:15      MisBP:0   MisRate:0.00%    MPKI:0.00
PC:b72d0     Total:181      MisBP:0   MisRate:0.00%    MPKI:0.00
PC:b72d2     Total:181      MisBP:0   MisRate:0.00%    MPKI:0.00
PC:c7f3e     Total:628      MisBP:0   MisRate:0.00%    MPKI:0.00
PC:b72d4     Total:181      MisBP:0   MisRate:0.00%    MPKI:0.00
PC:b72d6     Total:181      MisBP:0   MisRate:0.00%    MPKI:0.00
PC:2fbe0     Total:14      MisBP:0   MisRate:0.00%    MPKI:0.00
PC:b72d8     Total:181      MisBP:0   MisRate:0.00%    MPKI:0.00
PC:2fbe2     Total:14      MisBP:0   MisRate:0.00%    MPKI:0.00
PC:b72da     Total:217      MisBP:0   MisRate:0.00%    MPKI:0.00
PC:b72de     Total:389      MisBP:0   MisRate:0.00%    MPKI:0.00
PC:b72e0     Total:389      MisBP:0   MisRate:0.00%    MPKI:0.00
PC:2fbea     Total:12      MisBP:0   MisRate:0.00%    MPKI:0.00
PC:b732a     Total:90      MisBP:0   MisRate:0.00%    MPKI:0.00
PC:4e2ae     Total:1057      MisBP:0   MisRate:0.00%    MPKI:0.00
PC:2fc48     Total:15      MisBP:0   MisRate:0.00%    MPKI:0.00
PC:b731e     Total:289      MisBP:0   MisRate:0.00%    MPKI:0.00
PC:2fc28     Total:23      MisBP:0   MisRate:0.00%    MPKI:0.00
PC:b7322     Total:289      MisBP:0   MisRate:0.00%    MPKI:0.00
PC:b7324     Total:289      MisBP:0   MisRate:0.00%    MPKI:0.00
PC:4e294     Total:157      MisBP:0   MisRate:0.00%    MPKI:0.00
PC:2fc2e     Total:23      MisBP:0   MisRate:0.00%    MPKI:0.00
PC:4e298     Total:157      MisBP:0   MisRate:0.00%    MPKI:0.00
PC:2fc32     Total:11      MisBP:0   MisRate:0.00%    MPKI:0.00
PC:b733e     Total:193      MisBP:0   MisRate:0.00%    MPKI:0.00
PC:b732c     Total:90      MisBP:0   MisRate:0.00%    MPKI:0.00
PC:4e29c     Total:21      MisBP:0   MisRate:0.00%    MPKI:0.00
PC:2fc36     Total:11      MisBP:0   MisRate:0.00%    MPKI:0.00
PC:b7330     Total:90      MisBP:0   MisRate:0.00%    MPKI:0.00
PC:4e2a0     Total:5408      MisBP:0   MisRate:0.00%    MPKI:0.00
PC:2fc3a     Total:11      MisBP:0   MisRate:0.00%    MPKI:0.00
PC:b7334     Total:1375      MisBP:0   MisRate:0.00%    MPKI:0.00
PC:4e2a4     Total:1073      MisBP:0   MisRate:0.00%    MPKI:0.00
PC:2fc3e     Total:11      MisBP:0   MisRate:0.00%    MPKI:0.00
PC:c7f5a     Total:1      MisBP:0   MisRate:0.00%    MPKI:0.00
PC:c7f40     Total:268      MisBP:0   MisRate:0.00%    MPKI:0.00
PC:c7f42     Total:268      MisBP:0   MisRate:0.00%    MPKI:0.00
PC:c7f44     Total:268      MisBP:0   MisRate:0.00%    MPKI:0.00
PC:c7f46     Total:892      MisBP:0   MisRate:0.00%    MPKI:0.00
PC:c7f48     Total:446      MisBP:0   MisRate:0.00%    MPKI:0.00
PC:c7f4c     Total:446      MisBP:0   MisRate:0.00%    MPKI:0.00
PC:c7f50     Total:9      MisBP:0   MisRate:0.00%    MPKI:0.00
PC:c7f54     Total:6      MisBP:0   MisRate:0.00%    MPKI:0.00
PC:c7f56     Total:1      MisBP:0   MisRate:0.00%    MPKI:0.00
PC:b6980     Total:358      MisBP:0   MisRate:0.00%    MPKI:0.00
PC:c7f5c     Total:2      MisBP:0   MisRate:0.00%    MPKI:0.00
PC:b7336     Total:348      MisBP:0   MisRate:0.00%    MPKI:0.00
PC:4e2a6     Total:1073      MisBP:0   MisRate:0.00%    MPKI:0.00
PC:2fc40     Total:7      MisBP:0   MisRate:0.00%    MPKI:0.00
PC:b7338     Total:348      MisBP:0   MisRate:0.00%    MPKI:0.00
PC:b733a     Total:193      MisBP:0   MisRate:0.00%    MPKI:0.00
PC:4e2aa     Total:1059      MisBP:0   MisRate:0.00%    MPKI:0.00
PC:2fc44     Total:15      MisBP:0   MisRate:0.00%    MPKI:0.00
PC:b733c     Total:193      MisBP:0   MisRate:0.00%    MPKI:0.00
PC:d1c0e     Total:133      MisBP:0   MisRate:0.00%    MPKI:0.00
PC:fbcd0     Total:5      MisBP:0   MisRate:0.00%    MPKI:0.00
PC:3b44a     Total:164      MisBP:0   MisRate:0.00%    MPKI:0.00
PC:fbcd2     Total:5      MisBP:0   MisRate:0.00%    MPKI:0.00
PC:3b44c     Total:164      MisBP:0   MisRate:0.00%    MPKI:0.00
PC:fbcd4     Total:5      MisBP:0   MisRate:0.00%    MPKI:0.00
PC:d1c0a     Total:19      MisBP:0   MisRate:0.00%    MPKI:0.00
PC:fbcd6     Total:5      MisBP:0   MisRate:0.00%    MPKI:0.00
PC:3b450     Total:207      MisBP:0   MisRate:0.00%    MPKI:0.00
PC:fbcd8     Total:5      MisBP:0   MisRate:0.00%    MPKI:0.00
PC:3b452     Total:411      MisBP:0   MisRate:0.00%    MPKI:0.00
PC:3b446     Total:164      MisBP:0   MisRate:0.00%    MPKI:0.00
PC:fbcdc     Total:5      MisBP:0   MisRate:0.00%    MPKI:0.00
PC:3b456     Total:204      MisBP:0   MisRate:0.00%    MPKI:0.00
PC:fbcde     Total:5      MisBP:0   MisRate:0.00%    MPKI:0.00
PC:b7734     Total:329      MisBP:0   MisRate:0.00%    MPKI:0.00
PC:b7738     Total:329      MisBP:0   MisRate:0.00%    MPKI:0.00
PC:b773c     Total:329      MisBP:0   MisRate:0.00%    MPKI:0.00
PC:b773e     Total:329      MisBP:0   MisRate:0.00%    MPKI:0.00
PC:101c0     Total:38      MisBP:0   MisRate:0.00%    MPKI:0.00
PC:101f4     Total:22      MisBP:0   MisRate:0.00%    MPKI:0.00
PC:3b43a     Total:192      MisBP:0   MisRate:0.00%    MPKI:0.00
PC:b41f6     Total:3      MisBP:0   MisRate:0.00%    MPKI:0.00
PC:b41fa     Total:3      MisBP:0   MisRate:0.00%    MPKI:0.00
PC:fbcba     Total:6      MisBP:0   MisRate:0.00%    MPKI:0.00
PC:3b434     Total:192      MisBP:0   MisRate:0.00%    MPKI:0.00
PC:d1bf0     Total:2      MisBP:0   MisRate:0.00%    MPKI:0.00
PC:fbcbc     Total:6      MisBP:0   MisRate:0.00%    MPKI:0.00
PC:3b436     Total:192      MisBP:0   MisRate:0.00%    MPKI:0.00
PC:d1bf4     Total:2      MisBP:0   MisRate:0.00%    MPKI:0.00
PC:fbcc0     Total:5      MisBP:0   MisRate:0.00%    MPKI:0.00
PC:b7dce     Total:325      MisBP:0   MisRate:0.00%    MPKI:0.00
PC:fbcc2     Total:5      MisBP:0   MisRate:0.00%    MPKI:0.00
PC:3b43c     Total:192      MisBP:0   MisRate:0.00%    MPKI:0.00
PC:fbcc4     Total:5      MisBP:0   MisRate:0.00%    MPKI:0.00
PC:3b43e     Total:192      MisBP:0   MisRate:0.00%    MPKI:0.00
PC:fbcc6     Total:5      MisBP:0   MisRate:0.00%    MPKI:0.00
PC:3b440     Total:189      MisBP:0   MisRate:0.00%    MPKI:0.00
PC:fbcca     Total:5      MisBP:0   MisRate:0.00%    MPKI:0.00
PC:3b444     Total:164      MisBP:0   MisRate:0.00%    MPKI:0.00
PC:fbccc     Total:5      MisBP:0   MisRate:0.00%    MPKI:0.00
PC:d5f54     Total:8153      MisBP:0   MisRate:0.00%    MPKI:0.00
PC:b7ea8     Total:1      MisBP:0   MisRate:0.00%    MPKI:0.00
PC:b7eaa     Total:1      MisBP:0   MisRate:0.00%    MPKI:0.00
PC:b7eac     Total:1      MisBP:0   MisRate:0.00%    MPKI:0.00
PC:3df44     Total:201      MisBP:0   MisRate:0.00%    MPKI:0.00
PC:b78dc     Total:23      MisBP:0   MisRate:0.00%    MPKI:0.00
PC:3df48     Total:201      MisBP:0   MisRate:0.00%    MPKI:0.00
PC:b78e0     Total:186      MisBP:0   MisRate:0.00%    MPKI:0.00
PC:3df50     Total:201      MisBP:0   MisRate:0.00%    MPKI:0.00
PC:b78e8     Total:282      MisBP:0   MisRate:0.00%    MPKI:0.00
PC:3df56     Total:426      MisBP:0   MisRate:0.00%    MPKI:0.00
PC:b7ea6     Total:1      MisBP:0   MisRate:0.00%    MPKI:0.00
PC:b6950     Total:1098      MisBP:0   MisRate:0.00%    MPKI:0.00
PC:b6952     Total:183      MisBP:0   MisRate:0.00%    MPKI:0.00
PC:b6954     Total:183      MisBP:0   MisRate:0.00%    MPKI:0.00
PC:b6956     Total:182      MisBP:0   MisRate:0.00%    MPKI:0.00
PC:b695a     Total:182      MisBP:0   MisRate:0.00%    MPKI:0.00
PC:b696a     Total:37      MisBP:0   MisRate:0.00%    MPKI:0.00
PC:b697c     Total:380      MisBP:0   MisRate:0.00%    MPKI:0.00
PC:b69aa     Total:181      MisBP:0   MisRate:0.00%    MPKI:0.00
PC:b69be     Total:1      MisBP:0   MisRate:0.00%    MPKI:0.00
PC:b7dfe     Total:86      MisBP:0   MisRate:0.00%    MPKI:0.00
PC:b7dd6     Total:322      MisBP:0   MisRate:0.00%    MPKI:0.00
PC:b7de4     Total:231      MisBP:0   MisRate:0.00%    MPKI:0.00
PC:b7de8     Total:89      MisBP:0   MisRate:0.00%    MPKI:0.00
PC:b7dec     Total:89      MisBP:0   MisRate:0.00%    MPKI:0.00
PC:b7df0     Total:88      MisBP:0   MisRate:0.00%    MPKI:0.00
PC:b7df4     Total:88      MisBP:0   MisRate:0.00%    MPKI:0.00
PC:b7df6     Total:88      MisBP:0   MisRate:0.00%    MPKI:0.00
PC:b7df8     Total:86      MisBP:0   MisRate:0.00%    MPKI:0.00
PC:b7dfa     Total:86      MisBP:0   MisRate:0.00%    MPKI:0.00
PC:b69d4     Total:387      MisBP:0   MisRate:0.00%    MPKI:0.00
PC:b7e8e     Total:192      MisBP:0   MisRate:0.00%    MPKI:0.00
PC:b7e90     Total:192      MisBP:0   MisRate:0.00%    MPKI:0.00
PC:b7e92     Total:768      MisBP:0   MisRate:0.00%    MPKI:0.00
PC:b7e96     Total:192      MisBP:0   MisRate:0.00%    MPKI:0.00
PC:b7e98     Total:192      MisBP:0   MisRate:0.00%    MPKI:0.00
PC:b7e9c     Total:1      MisBP:0   MisRate:0.00%    MPKI:0.00
PC:b7e9e     Total:1      MisBP:0   MisRate:0.00%    MPKI:0.00
PC:b7ea0     Total:1      MisBP:0   MisRate:0.00%    MPKI:0.00
PC:b7ea2     Total:1      MisBP:0   MisRate:0.00%    MPKI:0.00
PC:557f6     Total:55      MisBP:0   MisRate:0.00%    MPKI:0.00
PC:3c4ee     Total:2913      MisBP:0   MisRate:0.00%    MPKI:0.00
PC:46710     Total:607      MisBP:0   MisRate:0.00%    MPKI:0.00
PC:3c500     Total:106      MisBP:0   MisRate:0.00%    MPKI:0.00
PC:46722     Total:2      MisBP:0   MisRate:0.00%    MPKI:0.00
PC:4672c     Total:2      MisBP:0   MisRate:0.00%    MPKI:0.00
PC:557f2     Total:55      MisBP:0   MisRate:0.00%    MPKI:0.00
PC:3fea8     Total:14138      MisBP:0   MisRate:0.00%    MPKI:0.00
PC:d7ea6     Total:15      MisBP:0   MisRate:0.00%    MPKI:0.00
PC:416ea     Total:32      MisBP:0   MisRate:0.00%    MPKI:0.00
PC:46730     Total:2      MisBP:0   MisRate:0.00%    MPKI:0.00
PC:d7e7e     Total:18      MisBP:0   MisRate:0.00%    MPKI:0.00
PC:3feac     Total:1541      MisBP:0   MisRate:0.00%    MPKI:0.00
PC:d7eaa     Total:15      MisBP:0   MisRate:0.00%    MPKI:0.00
PC:416ee     Total:32      MisBP:0   MisRate:0.00%    MPKI:0.00
PC:3c512     Total:106      MisBP:0   MisRate:0.00%    MPKI:0.00
PC:46734     Total:2      MisBP:0   MisRate:0.00%    MPKI:0.00
PC:557fa     Total:55      MisBP:0   MisRate:0.00%    MPKI:0.00
PC:3feb0     Total:1540      MisBP:0   MisRate:0.00%    MPKI:0.00
PC:d7eae     Total:14      MisBP:0   MisRate:0.00%    MPKI:0.00
PC:416f2     Total:32      MisBP:0   MisRate:0.00%    MPKI:0.00
PC:d7ef4     Total:24      MisBP:0   MisRate:0.00%    MPKI:0.00
PC:2e790     Total:225      MisBP:0   MisRate:0.00%    MPKI:0.00
PC:2e794     Total:225      MisBP:0   MisRate:0.00%    MPKI:0.00
PC:2e798     Total:720      MisBP:0   MisRate:0.00%    MPKI:0.00
PC:d8b56     Total:13      MisBP:0   MisRate:0.00%    MPKI:0.00
PC:46770     Total:153      MisBP:0   MisRate:0.00%    MPKI:0.00
PC:46774     Total:153      MisBP:0   MisRate:0.00%    MPKI:0.00
PC:46778     Total:1      MisBP:0   MisRate:0.00%    MPKI:0.00
PC:d7ef2     Total:24      MisBP:0   MisRate:0.00%    MPKI:0.00
PC:4677a     Total:1      MisBP:0   MisRate:0.00%    MPKI:0.00
PC:3fef6     Total:1634      MisBP:0   MisRate:0.00%    MPKI:0.00
PC:3c516     Total:106      MisBP:0   MisRate:0.00%    MPKI:0.00
PC:4677c     Total:1      MisBP:0   MisRate:0.00%    MPKI:0.00
PC:4677e     Total:1      MisBP:0   MisRate:0.00%    MPKI:0.00
PC:3fefa     Total:1634      MisBP:0   MisRate:0.00%    MPKI:0.00
PC:d7ef8     Total:24      MisBP:0   MisRate:0.00%    MPKI:0.00
PC:3c4da     Total:17501      MisBP:0   MisRate:0.00%    MPKI:0.00
PC:466fc     Total:153      MisBP:0   MisRate:0.00%    MPKI:0.00
PC:d7e76     Total:18      MisBP:0   MisRate:0.00%    MPKI:0.00
PC:3c4e2     Total:3068      MisBP:0   MisRate:0.00%    MPKI:0.00
PC:46704     Total:607      MisBP:0   MisRate:0.00%    MPKI:0.00
PC:b9662     Total:1      MisBP:0   MisRate:0.00%    MPKI:0.00
PC:d7ca8     Total:38      MisBP:0   MisRate:0.00%    MPKI:0.00
PC:46534     Total:352      MisBP:0   MisRate:0.00%    MPKI:0.00
PC:b9648     Total:11615      MisBP:0   MisRate:0.00%    MPKI:0.00
PC:d7cae     Total:35      MisBP:0   MisRate:0.00%    MPKI:0.00
PC:4653e     Total:307      MisBP:0   MisRate:0.00%    MPKI:0.00
PC:b9652     Total:11821      MisBP:0   MisRate:0.00%    MPKI:0.00
PC:bfedc     Total:1238      MisBP:0   MisRate:0.00%    MPKI:0.00
PC:b9658     Total:11821      MisBP:0   MisRate:0.00%    MPKI:0.00
PC:d7cbe     Total:42      MisBP:0   MisRate:0.00%    MPKI:0.00
PC:4654e     Total:1      MisBP:0   MisRate:0.00%    MPKI:0.00
PC:b9642     Total:11615      MisBP:0   MisRate:0.00%    MPKI:0.00
PC:d7cc8     Total:37      MisBP:0   MisRate:0.00%    MPKI:0.00
PC:3c33e     Total:5740      MisBP:0   MisRate:0.00%    MPKI:0.00
PC:bfef8     Total:1219      MisBP:0   MisRate:0.00%    MPKI:0.00
PC:46560     Total:1      MisBP:0   MisRate:0.00%    MPKI:0.00
PC:d7cda     Total:63      MisBP:0   MisRate:0.00%    MPKI:0.00
PC:3c37c     Total:536      MisBP:0   MisRate:0.00%    MPKI:0.00
PC:4659e     Total:196      MisBP:0   MisRate:0.00%    MPKI:0.00
PC:3c380     Total:535      MisBP:0   MisRate:0.00%    MPKI:0.00
PC:465a2     Total:196      MisBP:0   MisRate:0.00%    MPKI:0.00
PC:4651e     Total:409      MisBP:0   MisRate:0.00%    MPKI:0.00
PC:46738     Total:2      MisBP:0   MisRate:0.00%    MPKI:0.00
PC:d7eb2     Total:14      MisBP:0   MisRate:0.00%    MPKI:0.00
PC:4673c     Total:2      MisBP:0   MisRate:0.00%    MPKI:0.00
PC:3feb8     Total:2103      MisBP:0   MisRate:0.00%    MPKI:0.00
PC:d7eb6     Total:14      MisBP:0   MisRate:0.00%    MPKI:0.00
PC:416fa     Total:31      MisBP:0   MisRate:0.00%    MPKI:0.00
PC:4651c     Total:409      MisBP:0   MisRate:0.00%    MPKI:0.00
PC:b9630     Total:11717      MisBP:0   MisRate:0.00%    MPKI:0.00
PC:d7c96     Total:32      MisBP:0   MisRate:0.00%    MPKI:0.00
PC:2e78c     Total:225      MisBP:0   MisRate:0.00%    MPKI:0.00
PC:b9632     Total:11717      MisBP:0   MisRate:0.00%    MPKI:0.00
PC:d7c98     Total:32      MisBP:0   MisRate:0.00%    MPKI:0.00
PC:46522     Total:408      MisBP:0   MisRate:0.00%    MPKI:0.00
PC:b9636     Total:11717      MisBP:0   MisRate:0.00%    MPKI:0.00
PC:d7c9c     Total:32      MisBP:0   MisRate:0.00%    MPKI:0.00
PC:46526     Total:408      MisBP:0   MisRate:0.00%    MPKI:0.00
PC:b963c     Total:11617      MisBP:0   MisRate:0.00%    MPKI:0.00
PC:d7ca2     Total:32      MisBP:0   MisRate:0.00%    MPKI:0.00
PC:4652e     Total:367      MisBP:0   MisRate:0.00%    MPKI:0.00
PC:a7356     Total:22      MisBP:0   MisRate:0.00%    MPKI:0.00
PC:41df8     Total:1      MisBP:0   MisRate:0.00%    MPKI:0.00
PC:a734c     Total:22      MisBP:0   MisRate:0.00%    MPKI:0.00
PC:46afe     Total:198      MisBP:0   MisRate:0.00%    MPKI:0.00
PC:d48da     Total:37      MisBP:0   MisRate:0.00%    MPKI:0.00
PC:c0496     Total:5      MisBP:0   MisRate:0.00%    MPKI:0.00
PC:41dfc     Total:1      MisBP:0   MisRate:0.00%    MPKI:0.00
PC:a7350     Total:22      MisBP:0   MisRate:0.00%    MPKI:0.00
PC:a7354     Total:22      MisBP:0   MisRate:0.00%    MPKI:0.00
PC:46b06     Total:198      MisBP:0   MisRate:0.00%    MPKI:0.00
PC:c049e     Total:3      MisBP:0   MisRate:0.00%    MPKI:0.00
PC:c0494     Total:5      MisBP:0   MisRate:0.00%    MPKI:0.00
PC:d48e4     Total:37      MisBP:0   MisRate:0.00%    MPKI:0.00
PC:c04a0     Total:3      MisBP:0   MisRate:0.00%    MPKI:0.00
PC:a735a     Total:21      MisBP:0   MisRate:0.00%    MPKI:0.00
PC:c04a4     Total:3      MisBP:0   MisRate:0.00%    MPKI:0.00
PC:a735c     Total:21      MisBP:0   MisRate:0.00%    MPKI:0.00
PC:46b0e     Total:198      MisBP:0   MisRate:0.00%    MPKI:0.00
PC:d48ea     Total:37      MisBP:0   MisRate:0.00%    MPKI:0.00
PC:c04a6     Total:3      MisBP:0   MisRate:0.00%    MPKI:0.00
PC:a7360     Total:21      MisBP:0   MisRate:0.00%    MPKI:0.00
PC:b69ee     Total:1      MisBP:0   MisRate:0.00%    MPKI:0.00
PC:b69d6     Total:387      MisBP:0   MisRate:0.00%    MPKI:0.00
PC:b69da     Total:387      MisBP:0   MisRate:0.00%    MPKI:0.00
PC:b69dc     Total:321      MisBP:0   MisRate:0.00%    MPKI:0.00
PC:b69e0     Total:85      MisBP:0   MisRate:0.00%    MPKI:0.00
PC:b69e2     Total:1      MisBP:0   MisRate:0.00%    MPKI:0.00
PC:b69e4     Total:1      MisBP:0   MisRate:0.00%    MPKI:0.00
PC:b69e6     Total:1      MisBP:0   MisRate:0.00%    MPKI:0.00
PC:b69e8     Total:1      MisBP:0   MisRate:0.00%    MPKI:0.00
PC:b69ec     Total:1      MisBP:0   MisRate:0.00%    MPKI:0.00
PC:46b12     Total:198      MisBP:0   MisRate:0.00%    MPKI:0.00
PC:b69f2     Total:1      MisBP:0   MisRate:0.00%    MPKI:0.00
PC:b69f4     Total:3      MisBP:0   MisRate:0.00%    MPKI:0.00
PC:41dec     Total:1      MisBP:0   MisRate:0.00%    MPKI:0.00
PC:a7340     Total:30      MisBP:0   MisRate:0.00%    MPKI:0.00
PC:41df0     Total:1      MisBP:0   MisRate:0.00%    MPKI:0.00
PC:a7344     Total:30      MisBP:0   MisRate:0.00%    MPKI:0.00
PC:41df4     Total:1      MisBP:0   MisRate:0.00%    MPKI:0.00
PC:41df6     Total:1      MisBP:0   MisRate:0.00%    MPKI:0.00
PC:a734a     Total:22      MisBP:0   MisRate:0.00%    MPKI:0.00
PC:15414     Total:129      MisBP:0   MisRate:0.00%    MPKI:0.00
PC:d720e     Total:47      MisBP:0   MisRate:0.00%    MPKI:0.00
PC:13818     Total:119      MisBP:0   MisRate:0.00%    MPKI:0.00
PC:1382c     Total:114      MisBP:0   MisRate:0.00%    MPKI:0.00
PC:d723a     Total:42      MisBP:0   MisRate:0.00%    MPKI:0.00
PC:13830     Total:114      MisBP:0   MisRate:0.00%    MPKI:0.00
PC:13842     Total:456      MisBP:0   MisRate:0.00%    MPKI:0.00
PC:d7250     Total:18      MisBP:0   MisRate:0.00%    MPKI:0.00
PC:13846     Total:114      MisBP:0   MisRate:0.00%    MPKI:0.00
PC:d7254     Total:18      MisBP:0   MisRate:0.00%    MPKI:0.00
PC:153f6     Total:116      MisBP:0   MisRate:0.00%    MPKI:0.00
PC:13800     Total:289      MisBP:0   MisRate:0.00%    MPKI:0.00
PC:1a338     Total:203      MisBP:0   MisRate:0.00%    MPKI:0.00
PC:2e77c     Total:672      MisBP:0   MisRate:0.00%    MPKI:0.00
PC:1a33c     Total:203      MisBP:0   MisRate:0.00%    MPKI:0.00
PC:2e780     Total:224      MisBP:0   MisRate:0.00%    MPKI:0.00
PC:1a340     Total:199      MisBP:0   MisRate:0.00%    MPKI:0.00
PC:2e784     Total:225      MisBP:0   MisRate:0.00%    MPKI:0.00
PC:1a344     Total:199      MisBP:0   MisRate:0.00%    MPKI:0.00
PC:2e788     Total:225      MisBP:0   MisRate:0.00%    MPKI:0.00
PC:1a348     Total:200      MisBP:0   MisRate:0.00%    MPKI:0.00
PC:bb7b4     Total:1      MisBP:0   MisRate:0.00%    MPKI:0.00
PC:c04aa     Total:3      MisBP:0   MisRate:0.00%    MPKI:0.00
PC:a7364     Total:21      MisBP:0   MisRate:0.00%    MPKI:0.00
PC:a7366     Total:21      MisBP:0   MisRate:0.00%    MPKI:0.00
PC:46b18     Total:198      MisBP:0   MisRate:0.00%    MPKI:0.00
PC:c04b0     Total:3      MisBP:0   MisRate:0.00%    MPKI:0.00
PC:a736a     Total:21      MisBP:0   MisRate:0.00%    MPKI:0.00
PC:46b1c     Total:198      MisBP:0   MisRate:0.00%    MPKI:0.00
PC:c04b4     Total:3      MisBP:0   MisRate:0.00%    MPKI:0.00
PC:a736c     Total:21      MisBP:0   MisRate:0.00%    MPKI:0.00
PC:b41f2     Total:3      MisBP:0   MisRate:0.00%    MPKI:0.00
PC:a7370     Total:21      MisBP:0   MisRate:0.00%    MPKI:0.00
PC:bb7b8     Total:1      MisBP:0   MisRate:0.00%    MPKI:0.00
PC:a7374     Total:21      MisBP:0   MisRate:0.00%    MPKI:0.00
PC:bb99a     Total:4      MisBP:0   MisRate:0.00%    MPKI:0.00
PC:a7556     Total:742      MisBP:0   MisRate:0.00%    MPKI:0.00
PC:bb9c4     Total:3      MisBP:0   MisRate:0.00%    MPKI:0.00
PC:a7580     Total:840      MisBP:0   MisRate:0.00%    MPKI:0.00
PC:bb9c8     Total:3      MisBP:0   MisRate:0.00%    MPKI:0.00
PC:a7584     Total:280      MisBP:0   MisRate:0.00%    MPKI:0.00
PC:13862     Total:152      MisBP:0   MisRate:0.00%    MPKI:0.00
PC:13852     Total:161      MisBP:0   MisRate:0.00%    MPKI:0.00
PC:d7260     Total:17      MisBP:0   MisRate:0.00%    MPKI:0.00
PC:13854     Total:161      MisBP:0   MisRate:0.00%    MPKI:0.00
PC:d7262     Total:17      MisBP:0   MisRate:0.00%    MPKI:0.00
PC:13858     Total:152      MisBP:0   MisRate:0.00%    MPKI:0.00
PC:1385c     Total:152      MisBP:0   MisRate:0.00%    MPKI:0.00
PC:d726a     Total:17      MisBP:0   MisRate:0.00%    MPKI:0.00
PC:d40e4     Total:1458      MisBP:0   MisRate:0.00%    MPKI:0.00
PC:1385e     Total:152      MisBP:0   MisRate:0.00%    MPKI:0.00
PC:d726c     Total:64      MisBP:0   MisRate:0.00%    MPKI:0.00
PC:d40d8     Total:1458      MisBP:0   MisRate:0.00%    MPKI:0.00
PC:13866     Total:158      MisBP:0   MisRate:0.00%    MPKI:0.00
PC:d7274     Total:92      MisBP:0   MisRate:0.00%    MPKI:0.00
PC:1386a     Total:158      MisBP:0   MisRate:0.00%    MPKI:0.00
PC:d7278     Total:92      MisBP:0   MisRate:0.00%    MPKI:0.00
PC:1386c     Total:158      MisBP:0   MisRate:0.00%    MPKI:0.00
PC:d40f4     Total:182      MisBP:0   MisRate:0.00%    MPKI:0.00
PC:1386e     Total:158      MisBP:0   MisRate:0.00%    MPKI:0.00
PC:d727c     Total:92      MisBP:0   MisRate:0.00%    MPKI:0.00
PC:d40f8     Total:182      MisBP:0   MisRate:0.00%    MPKI:0.00
PC:139bc     Total:1      MisBP:0   MisRate:0.00%    MPKI:0.00
PC:b41ea     Total:3      MisBP:0   MisRate:0.00%    MPKI:0.00
PC:d4232     Total:3      MisBP:0   MisRate:0.00%    MPKI:0.00
PC:139ac     Total:15      MisBP:0   MisRate:0.00%    MPKI:0.00
PC:b41ec     Total:3      MisBP:0   MisRate:0.00%    MPKI:0.00
PC:d4236     Total:3      MisBP:0   MisRate:0.00%    MPKI:0.00
PC:139b0     Total:1      MisBP:0   MisRate:0.00%    MPKI:0.00
PC:139b4     Total:1      MisBP:0   MisRate:0.00%    MPKI:0.00
PC:b41f4     Total:3      MisBP:0   MisRate:0.00%    MPKI:0.00
PC:d423e     Total:3      MisBP:0   MisRate:0.00%    MPKI:0.00
PC:139b8     Total:3      MisBP:0   MisRate:0.00%    MPKI:0.00
PC:13872     Total:158      MisBP:0   MisRate:0.00%    MPKI:0.00
PC:b41fc     Total:3      MisBP:0   MisRate:0.00%    MPKI:0.00
PC:139be     Total:1      MisBP:0   MisRate:0.00%    MPKI:0.00
PC:d71f0     Total:78      MisBP:0   MisRate:0.00%    MPKI:0.00
PC:1384c     Total:116      MisBP:0   MisRate:0.00%    MPKI:0.00
PC:d725a     Total:17      MisBP:0   MisRate:0.00%    MPKI:0.00
PC:d40d4     Total:1399      MisBP:0   MisRate:0.00%    MPKI:0.00
PC:d725c     Total:17      MisBP:0   MisRate:0.00%    MPKI:0.00
PC:13850     Total:161      MisBP:0   MisRate:0.00%    MPKI:0.00
PC:d725e     Total:17      MisBP:0   MisRate:0.00%    MPKI:0.00
PC:13880     Total:139      MisBP:0   MisRate:0.00%    MPKI:0.00
PC:3b47e     Total:165      MisBP:0   MisRate:0.00%    MPKI:0.00
PC:d4100     Total:177      MisBP:0   MisRate:0.00%    MPKI:0.00
PC:1387a     Total:147      MisBP:0   MisRate:0.00%    MPKI:0.00
PC:d7288     Total:79      MisBP:0   MisRate:0.00%    MPKI:0.00
PC:3c104     Total:5497      MisBP:0   MisRate:0.00%    MPKI:0.00
PC:1387c     Total:147      MisBP:0   MisRate:0.00%    MPKI:0.00
PC:3ac10     Total:670      MisBP:0   MisRate:0.00%    MPKI:0.00
PC:3ac14     Total:2010      MisBP:0   MisRate:0.00%    MPKI:0.00
PC:3ac24     Total:2097      MisBP:0   MisRate:0.00%    MPKI:0.00
PC:3c108     Total:5377      MisBP:0   MisRate:0.00%    MPKI:0.00
PC:bf038     Total:11460      MisBP:0   MisRate:0.00%    MPKI:0.00
PC:3c10c     Total:5377      MisBP:0   MisRate:0.00%    MPKI:0.00
PC:13884     Total:146      MisBP:0   MisRate:0.00%    MPKI:0.00
PC:d7292     Total:69      MisBP:0   MisRate:0.00%    MPKI:0.00
PC:3c10e     Total:5377      MisBP:0   MisRate:0.00%    MPKI:0.00
PC:d410c     Total:177      MisBP:0   MisRate:0.00%    MPKI:0.00
PC:13886     Total:2      MisBP:0   MisRate:0.00%    MPKI:0.00
PC:d7294     Total:69      MisBP:0   MisRate:0.00%    MPKI:0.00
PC:d410e     Total:177      MisBP:0   MisRate:0.00%    MPKI:0.00
PC:3c110     Total:5376      MisBP:0   MisRate:0.00%    MPKI:0.00
PC:fbcfc     Total:5      MisBP:0   MisRate:0.00%    MPKI:0.00
PC:d7280     Total:79      MisBP:0   MisRate:0.00%    MPKI:0.00
PC:d40fc     Total:182      MisBP:0   MisRate:0.00%    MPKI:0.00
PC:13876     Total:148      MisBP:0   MisRate:0.00%    MPKI:0.00
PC:fbcf6     Total:5      MisBP:0   MisRate:0.00%    MPKI:0.00
PC:bf02a     Total:46051      MisBP:0   MisRate:0.00%    MPKI:0.00
PC:3b470     Total:673      MisBP:0   MisRate:0.00%    MPKI:0.00
PC:fbcfa     Total:5      MisBP:0   MisRate:0.00%    MPKI:0.00
PC:3b474     Total:673      MisBP:0   MisRate:0.00%    MPKI:0.00
PC:bf030     Total:11512      MisBP:0   MisRate:0.00%    MPKI:0.00
PC:139aa     Total:2      MisBP:0   MisRate:0.00%    MPKI:0.00
PC:3b476     Total:673      MisBP:0   MisRate:0.00%    MPKI:0.00
PC:fbcfe     Total:5      MisBP:0   MisRate:0.00%    MPKI:0.00
PC:bf032     Total:11512      MisBP:0   MisRate:0.00%    MPKI:0.00
PC:3b478     Total:672      MisBP:0   MisRate:0.00%    MPKI:0.00
PC:fbd00     Total:3      MisBP:0   MisRate:0.00%    MPKI:0.00
PC:3b47a     Total:672      MisBP:0   MisRate:0.00%    MPKI:0.00
PC:fbd02     Total:3      MisBP:0   MisRate:0.00%    MPKI:0.00
PC:bf036     Total:11460      MisBP:0   MisRate:0.00%    MPKI:0.00
PC:fbd04     Total:3      MisBP:0   MisRate:0.00%    MPKI:0.00
PC:d41cc     Total:15      MisBP:0   MisRate:0.00%    MPKI:0.00
PC:bb3c4     Total:38      MisBP:0   MisRate:0.00%    MPKI:0.00
PC:bb3c6     Total:38      MisBP:0   MisRate:0.00%    MPKI:0.00
PC:bb3c8     Total:37      MisBP:0   MisRate:0.00%    MPKI:0.00
PC:bb3ca     Total:37      MisBP:0   MisRate:0.00%    MPKI:0.00
PC:bb3cc     Total:37      MisBP:0   MisRate:0.00%    MPKI:0.00
PC:bb3d0     Total:37      MisBP:0   MisRate:0.00%    MPKI:0.00
PC:d41c4     Total:15      MisBP:0   MisRate:0.00%    MPKI:0.00
PC:1393e     Total:118      MisBP:0   MisRate:0.00%    MPKI:0.00
PC:d41c8     Total:15      MisBP:0   MisRate:0.00%    MPKI:0.00
PC:13942     Total:118      MisBP:0   MisRate:0.00%    MPKI:0.00
PC:bb3c0     Total:57      MisBP:0   MisRate:0.00%    MPKI:0.00
PC:3c1ce     Total:2      MisBP:0   MisRate:0.00%    MPKI:0.00
PC:13946     Total:144      MisBP:0   MisRate:0.00%    MPKI:0.00
PC:3c1d2     Total:2      MisBP:0   MisRate:0.00%    MPKI:0.00
PC:d41d0     Total:15      MisBP:0   MisRate:0.00%    MPKI:0.00
PC:1394a     Total:144      MisBP:0   MisRate:0.00%    MPKI:0.00
PC:3c1d4     Total:2      MisBP:0   MisRate:0.00%    MPKI:0.00
PC:d41d2     Total:15      MisBP:0   MisRate:0.00%    MPKI:0.00
PC:1394c     Total:144      MisBP:0   MisRate:0.00%    MPKI:0.00
PC:d41d6     Total:15      MisBP:0   MisRate:0.00%    MPKI:0.00
PC:e28e4     Total:8      MisBP:0   MisRate:0.00%    MPKI:0.00
PC:e28b6     Total:8      MisBP:0   MisRate:0.00%    MPKI:0.00
[...]
PC:4e292     Total:157      MisBP:23   MisRate:14.65%    MPKI:0.00
PC:a732a     Total:61      MisBP:23   MisRate:37.70%    MPKI:0.00
PC:3f428     Total:1236      MisBP:23   MisRate:1.86%    MPKI:0.00
PC:34     Total:0      MisBP:23   MisRate:inf%    MPKI:0.00
PC:d418a     Total:11492      MisBP:24   MisRate:0.21%    MPKI:0.00
PC:d416c     Total:11311      MisBP:24   MisRate:0.21%    MPKI:0.00
PC:30     Total:0      MisBP:24   MisRate:inf%    MPKI:0.00
PC:10158     Total:16428      MisBP:24   MisRate:0.15%    MPKI:0.00
PC:46bbc     Total:208      MisBP:25   MisRate:12.02%    MPKI:0.00
PC:45a8a     Total:573      MisBP:25   MisRate:4.36%    MPKI:0.00
PC:e     Total:0      MisBP:26   MisRate:inf%    MPKI:0.00
PC:3b47c     Total:672      MisBP:26   MisRate:3.87%    MPKI:0.00
PC:4763a     Total:405      MisBP:26   MisRate:6.42%    MPKI:0.00
PC:aa1e     Total:0      MisBP:27   MisRate:inf%    MPKI:0.00
PC:be786     Total:137258      MisBP:27   MisRate:0.02%    MPKI:0.00
PC:2c     Total:0      MisBP:28   MisRate:inf%    MPKI:0.00
PC:be888     Total:318      MisBP:29   MisRate:9.12%    MPKI:0.00
PC:3c672     Total:4436      MisBP:29   MisRate:0.65%    MPKI:0.00
PC:b76a4     Total:1120      MisBP:29   MisRate:2.59%    MPKI:0.00
PC:d795e     Total:144      MisBP:30   MisRate:20.83%    MPKI:0.00
PC:d46ae     Total:4446      MisBP:30   MisRate:0.67%    MPKI:0.00
PC:a     Total:0      MisBP:30   MisRate:inf%    MPKI:0.00
PC:d71d0     Total:113      MisBP:31   MisRate:27.43%    MPKI:0.00
PC:d8098     Total:126      MisBP:31   MisRate:24.60%    MPKI:0.00
PC:420e4     Total:701      MisBP:31   MisRate:4.42%    MPKI:0.00
PC:d8628     Total:84      MisBP:32   MisRate:38.10%    MPKI:0.00
PC:51774     Total:7810      MisBP:32   MisRate:0.41%    MPKI:0.00
PC:2     Total:0      MisBP:32   MisRate:inf%    MPKI:0.00
PC:6     Total:0      MisBP:32   MisRate:inf%    MPKI:0.00
PC:c055a     Total:94925      MisBP:33   MisRate:0.03%    MPKI:0.00
PC:3c14a     Total:7830      MisBP:33   MisRate:0.42%    MPKI:0.00
PC:41dce     Total:981      MisBP:34   MisRate:3.47%    MPKI:0.00
PC:b7676     Total:335      MisBP:34   MisRate:10.15%    MPKI:0.00
PC:ba78e     Total:5427      MisBP:34   MisRate:0.63%    MPKI:0.00
PC:be950     Total:1463      MisBP:34   MisRate:2.32%    MPKI:0.00
PC:aa1c     Total:0      MisBP:35   MisRate:inf%    MPKI:0.00
PC:bb1de     Total:30637      MisBP:36   MisRate:0.12%    MPKI:0.00
PC:bb262     Total:38      MisBP:37   MisRate:97.37%    MPKI:0.00
PC:457d8     Total:11777      MisBP:37   MisRate:0.31%    MPKI:0.00
PC:b6960     Total:182      MisBP:37   MisRate:20.33%    MPKI:0.00
PC:a7324     Total:815      MisBP:37   MisRate:4.54%    MPKI:0.00
PC:3f460     Total:3379      MisBP:38   MisRate:1.12%    MPKI:0.00
PC:d71e2     Total:144      MisBP:39   MisRate:27.08%    MPKI:0.00
PC:b72e8     Total:387      MisBP:39   MisRate:10.08%    MPKI:0.00
PC:d5708     Total:11736      MisBP:40   MisRate:0.34%    MPKI:0.00
PC:4b420     Total:869      MisBP:40   MisRate:4.60%    MPKI:0.00
PC:458f8     Total:748      MisBP:41   MisRate:5.48%    MPKI:0.00
PC:b86a6     Total:11574      MisBP:41   MisRate:0.35%    MPKI:0.00
PC:b86aa     Total:41      MisBP:41   MisRate:100.00%    MPKI:0.00
PC:aa1a     Total:0      MisBP:42   MisRate:inf%    MPKI:0.00
PC:d3d86     Total:599      MisBP:42   MisRate:7.01%    MPKI:0.00
PC:aa16     Total:0      MisBP:43   MisRate:inf%    MPKI:0.00
PC:aa18     Total:0      MisBP:43   MisRate:inf%    MPKI:0.00
PC:bd276     Total:9574      MisBP:44   MisRate:0.46%    MPKI:0.00
PC:be960     Total:1345      MisBP:44   MisRate:3.27%    MPKI:0.00
PC:3b084     Total:696      MisBP:45   MisRate:6.47%    MPKI:0.00
PC:4592e     Total:906      MisBP:45   MisRate:4.97%    MPKI:0.00
PC:d46f6     Total:14143      MisBP:46   MisRate:0.33%    MPKI:0.00
PC:420f8     Total:611      MisBP:46   MisRate:7.53%    MPKI:0.00
PC:4b426     Total:1104      MisBP:48   MisRate:4.35%    MPKI:0.00
PC:aa10     Total:0      MisBP:48   MisRate:inf%    MPKI:0.00
PC:aa12     Total:0      MisBP:48   MisRate:inf%    MPKI:0.00
PC:aa14     Total:0      MisBP:48   MisRate:inf%    MPKI:0.00
PC:aa0e     Total:0      MisBP:49   MisRate:inf%    MPKI:0.00
PC:c0556     Total:94145      MisBP:49   MisRate:0.05%    MPKI:0.00
PC:45ab8     Total:354      MisBP:49   MisRate:13.84%    MPKI:0.00
PC:e34ec     Total:224      MisBP:49   MisRate:21.88%    MPKI:0.00
PC:aa0c     Total:0      MisBP:51   MisRate:inf%    MPKI:0.00
PC:aa0a     Total:0      MisBP:51   MisRate:inf%    MPKI:0.00
PC:aa08     Total:0      MisBP:51   MisRate:inf%    MPKI:0.00
PC:b7de6     Total:231      MisBP:53   MisRate:22.94%    MPKI:0.00
PC:b76d2     Total:231      MisBP:53   MisRate:22.94%    MPKI:0.00
PC:be6fa     Total:9972      MisBP:53   MisRate:0.53%    MPKI:0.00
PC:d4680     Total:1190      MisBP:54   MisRate:4.54%    MPKI:0.00
PC:bb53c     Total:24850      MisBP:54   MisRate:0.22%    MPKI:0.00
PC:4476e     Total:601      MisBP:54   MisRate:8.99%    MPKI:0.00
PC:45936     Total:423      MisBP:55   MisRate:13.00%    MPKI:0.00
PC:e351e     Total:1214      MisBP:55   MisRate:4.53%    MPKI:0.00
PC:b88fe     Total:11731      MisBP:56   MisRate:0.48%    MPKI:0.00
PC:3f422     Total:1241      MisBP:56   MisRate:4.51%    MPKI:0.00
PC:d3ba2     Total:14091      MisBP:57   MisRate:0.40%    MPKI:0.00
PC:3e1ec     Total:38053      MisBP:57   MisRate:0.15%    MPKI:0.00
PC:42af8     Total:619      MisBP:58   MisRate:9.37%    MPKI:0.00
PC:4212a     Total:2897      MisBP:59   MisRate:2.04%    MPKI:0.00
PC:d50c8     Total:9470      MisBP:60   MisRate:0.63%    MPKI:0.00
PC:b87a6     Total:301401      MisBP:60   MisRate:0.02%    MPKI:0.00
PC:28     Total:0      MisBP:61   MisRate:inf%    MPKI:0.00
PC:e34de     Total:1596      MisBP:62   MisRate:3.88%    MPKI:0.00
PC:46702     Total:608      MisBP:65   MisRate:10.69%    MPKI:0.00
PC:d3d32     Total:21914      MisBP:66   MisRate:0.30%    MPKI:0.00
PC:4b526     Total:435      MisBP:66   MisRate:15.17%    MPKI:0.00
PC:d606e     Total:12131      MisBP:66   MisRate:0.54%    MPKI:0.00
PC:bb38c     Total:25205      MisBP:66   MisRate:0.26%    MPKI:0.00
PC:3bfdc     Total:389285      MisBP:66   MisRate:0.02%    MPKI:0.00
PC:4a5e0     Total:5672      MisBP:66   MisRate:1.16%    MPKI:0.00
PC:45974     Total:198      MisBP:67   MisRate:33.84%    MPKI:0.00
PC:b76fc     Total:869      MisBP:67   MisRate:7.71%    MPKI:0.00
PC:4e2bc     Total:6366      MisBP:68   MisRate:1.07%    MPKI:0.00
PC:d3654     Total:9345      MisBP:68   MisRate:0.73%    MPKI:0.00
PC:42ae2     Total:582      MisBP:69   MisRate:11.86%    MPKI:0.00
PC:b72f4     Total:410      MisBP:71   MisRate:17.32%    MPKI:0.00
PC:ba766     Total:5357      MisBP:72   MisRate:1.34%    MPKI:0.00
PC:bf0be     Total:5137      MisBP:74   MisRate:1.44%    MPKI:0.00
PC:c052c     Total:18947      MisBP:76   MisRate:0.40%    MPKI:0.00
PC:45aa4     Total:1046      MisBP:79   MisRate:7.55%    MPKI:0.00
PC:47662     Total:145      MisBP:79   MisRate:54.48%    MPKI:0.00
PC:4211e     Total:528      MisBP:79   MisRate:14.96%    MPKI:0.00
PC:d4838     Total:14891      MisBP:82   MisRate:0.55%    MPKI:0.00
PC:3c04e     Total:2841      MisBP:84   MisRate:2.96%    MPKI:0.00
PC:24     Total:0      MisBP:84   MisRate:inf%    MPKI:0.00
PC:d1dee     Total:426      MisBP:87   MisRate:20.42%    MPKI:0.00
PC:d46c0     Total:3892      MisBP:88   MisRate:2.26%    MPKI:0.00
PC:20     Total:0      MisBP:89   MisRate:inf%    MPKI:0.00
PC:1c     Total:0      MisBP:89   MisRate:inf%    MPKI:0.00
PC:d483c     Total:18315      MisBP:90   MisRate:0.49%    MPKI:0.00
PC:3ccb2     Total:3974      MisBP:91   MisRate:2.29%    MPKI:0.00
PC:44750     Total:232      MisBP:91   MisRate:39.22%    MPKI:0.00
PC:18     Total:0      MisBP:92   MisRate:inf%    MPKI:0.00
PC:14     Total:0      MisBP:94   MisRate:inf%    MPKI:0.00
PC:4e2b2     Total:1038      MisBP:94   MisRate:9.06%    MPKI:0.00
PC:d6272     Total:392      MisBP:95   MisRate:24.23%    MPKI:0.00
PC:b878a     Total:358      MisBP:95   MisRate:26.54%    MPKI:0.00
PC:e3526     Total:7316      MisBP:96   MisRate:1.31%    MPKI:0.00
PC:45930     Total:754      MisBP:99   MisRate:13.13%    MPKI:0.00
PC:4595e     Total:731      MisBP:100   MisRate:13.68%    MPKI:0.00
PC:10     Total:0      MisBP:101   MisRate:inf%    MPKI:0.00
PC:d4748     Total:1155      MisBP:101   MisRate:8.74%    MPKI:0.00
PC:d50dc     Total:175      MisBP:106   MisRate:60.57%    MPKI:0.00
PC:4badc     Total:940      MisBP:107   MisRate:11.38%    MPKI:0.00
PC:c     Total:0      MisBP:107   MisRate:inf%    MPKI:0.00
PC:3c4fe     Total:2898      MisBP:108   MisRate:3.73%    MPKI:0.00
PC:0     Total:0      MisBP:111   MisRate:inf%    MPKI:0.00
PC:8     Total:0      MisBP:111   MisRate:inf%    MPKI:0.00
PC:4765e     Total:292      MisBP:111   MisRate:38.01%    MPKI:0.00
PC:4     Total:0      MisBP:111   MisRate:inf%    MPKI:0.00
PC:3b428     Total:941      MisBP:114   MisRate:12.11%    MPKI:0.00
PC:45d26     Total:1352      MisBP:119   MisRate:8.80%    MPKI:0.00
PC:40fde     Total:207      MisBP:119   MisRate:57.49%    MPKI:0.00
PC:d50d4     Total:175      MisBP:120   MisRate:68.57%    MPKI:0.00
PC:3c1ee     Total:3329      MisBP:123   MisRate:3.69%    MPKI:0.00
PC:d4884     Total:28427      MisBP:124   MisRate:0.44%    MPKI:0.00
PC:465be     Total:184      MisBP:127   MisRate:69.02%    MPKI:0.00
PC:d50e2     Total:175      MisBP:129   MisRate:73.71%    MPKI:0.00
PC:d3b7c     Total:12763      MisBP:130   MisRate:1.02%    MPKI:0.00
PC:53e0c     Total:3745      MisBP:137   MisRate:3.66%    MPKI:0.00
PC:d3b92     Total:12727      MisBP:138   MisRate:1.08%    MPKI:0.00
PC:45ab2     Total:1878      MisBP:139   MisRate:7.40%    MPKI:0.00
PC:d4750     Total:1116      MisBP:141   MisRate:12.63%    MPKI:0.00
PC:d40f2     Total:1554      MisBP:143   MisRate:9.20%    MPKI:0.00
PC:44762     Total:393      MisBP:144   MisRate:36.64%    MPKI:0.00
PC:51664     Total:655      MisBP:147   MisRate:22.44%    MPKI:0.00
PC:457be     Total:9000      MisBP:152   MisRate:1.69%    MPKI:0.00
PC:465b0     Total:196      MisBP:153   MisRate:78.06%    MPKI:0.00
PC:e34da     Total:1596      MisBP:154   MisRate:9.65%    MPKI:0.00
PC:420f4     Total:613      MisBP:154   MisRate:25.12%    MPKI:0.00
PC:4baee     Total:1656      MisBP:158   MisRate:9.54%    MPKI:0.00
PC:4b55c     Total:2319      MisBP:170   MisRate:7.33%    MPKI:0.00
PC:d47ec     Total:24356      MisBP:170   MisRate:0.70%    MPKI:0.00
PC:41dc4     Total:1002      MisBP:172   MisRate:17.17%    MPKI:0.00
PC:d488e     Total:27928      MisBP:173   MisRate:0.62%    MPKI:0.00
PC:d50cc     Total:1212      MisBP:174   MisRate:14.36%    MPKI:0.00
PC:475fe     Total:2213      MisBP:177   MisRate:8.00%    MPKI:0.00
PC:d682a     Total:10276      MisBP:178   MisRate:1.73%    MPKI:0.00
PC:3ccf4     Total:4276      MisBP:180   MisRate:4.21%    MPKI:0.00
PC:d46fc     Total:13336      MisBP:183   MisRate:1.37%    MPKI:0.00
PC:4a5b2     Total:6431      MisBP:185   MisRate:2.88%    MPKI:0.00
PC:d3b40     Total:12292      MisBP:186   MisRate:1.51%    MPKI:0.00
PC:d5d0c     Total:24109      MisBP:187   MisRate:0.78%    MPKI:0.00
PC:be7e4     Total:9802      MisBP:188   MisRate:1.92%    MPKI:0.00
PC:d4702     Total:12083      MisBP:193   MisRate:1.60%    MPKI:0.00
PC:45906     Total:9981      MisBP:195   MisRate:1.95%    MPKI:0.00
PC:b877c     Total:62840      MisBP:199   MisRate:0.32%    MPKI:0.00
PC:420e0     Total:816      MisBP:199   MisRate:24.39%    MPKI:0.00
PC:475ea     Total:2073      MisBP:200   MisRate:9.65%    MPKI:0.00
PC:babc8     Total:5403      MisBP:200   MisRate:3.70%    MPKI:0.00
PC:be7de     Total:9927      MisBP:203   MisRate:2.04%    MPKI:0.00
PC:3c02e     Total:43964      MisBP:206   MisRate:0.47%    MPKI:0.00
PC:3f33a     Total:3685      MisBP:207   MisRate:5.62%    MPKI:0.00
PC:d625a     Total:1356      MisBP:207   MisRate:15.27%    MPKI:0.00
PC:c0520     Total:21602      MisBP:208   MisRate:0.96%    MPKI:0.00
PC:41db2     Total:806      MisBP:209   MisRate:25.93%    MPKI:0.00
PC:5165c     Total:655      MisBP:209   MisRate:31.91%    MPKI:0.00
PC:be952     Total:1458      MisBP:213   MisRate:14.61%    MPKI:0.00
PC:d6264     Total:392      MisBP:217   MisRate:55.36%    MPKI:0.00
PC:b8930     Total:11729      MisBP:218   MisRate:1.86%    MPKI:0.00
PC:3f45a     Total:3403      MisBP:223   MisRate:6.55%    MPKI:0.00
PC:457ee     Total:7927      MisBP:224   MisRate:2.83%    MPKI:0.00
PC:3c140     Total:10392      MisBP:227   MisRate:2.18%    MPKI:0.00
PC:b765a     Total:993      MisBP:232   MisRate:23.36%    MPKI:0.00
PC:45a96     Total:2235      MisBP:238   MisRate:10.65%    MPKI:0.00
PC:3ccfa     Total:20617      MisBP:241   MisRate:1.17%    MPKI:0.00
PC:d474c     Total:10562      MisBP:244   MisRate:2.31%    MPKI:0.00
PC:51682     Total:9639      MisBP:249   MisRate:2.58%    MPKI:0.00
PC:4e2b4     Total:1391      MisBP:258   MisRate:18.55%    MPKI:0.00
PC:45e68     Total:3298      MisBP:259   MisRate:7.85%    MPKI:0.00
PC:d3d90     Total:581      MisBP:260   MisRate:44.75%    MPKI:0.00
PC:3aeb8     Total:9214      MisBP:262   MisRate:2.84%    MPKI:0.00
PC:b764a     Total:2319      MisBP:265   MisRate:11.43%    MPKI:0.00
PC:51658     Total:10286      MisBP:266   MisRate:2.59%    MPKI:0.00
PC:d5eee     Total:8159      MisBP:271   MisRate:3.32%    MPKI:0.00
PC:4713e     Total:3664617      MisBP:282   MisRate:0.01%    MPKI:0.00
PC:d4118     Total:1753      MisBP:294   MisRate:16.77%    MPKI:0.00
PC:d46b8     Total:4446      MisBP:308   MisRate:6.93%    MPKI:0.00
PC:3c00a     Total:124862      MisBP:318   MisRate:0.25%    MPKI:0.00
PC:d368a     Total:1743      MisBP:320   MisRate:18.36%    MPKI:0.00
PC:4b414     Total:7210      MisBP:321   MisRate:4.45%    MPKI:0.00
PC:2e952     Total:1189      MisBP:321   MisRate:27.00%    MPKI:0.00
PC:be788     Total:137205      MisBP:327   MisRate:0.24%    MPKI:0.00
PC:bb2aa     Total:460      MisBP:338   MisRate:73.48%    MPKI:0.00
PC:bea3a     Total:13372      MisBP:341   MisRate:2.55%    MPKI:0.00
PC:bb27a     Total:27446      MisBP:345   MisRate:1.26%    MPKI:0.00
PC:4baba     Total:479      MisBP:345   MisRate:72.03%    MPKI:0.00
PC:45ac6     Total:1072      MisBP:356   MisRate:33.21%    MPKI:0.00
PC:3aeca     Total:5600      MisBP:378   MisRate:6.75%    MPKI:0.00
PC:bb5a8     Total:30493      MisBP:425   MisRate:1.39%    MPKI:0.00
PC:d5ac6     Total:9287      MisBP:462   MisRate:4.97%    MPKI:0.00
PC:bbaba     Total:29381      MisBP:462   MisRate:1.57%    MPKI:0.00
PC:d3d56     Total:21037      MisBP:481   MisRate:2.29%    MPKI:0.00
PC:47154     Total:3666291      MisBP:505   MisRate:0.01%    MPKI:0.00
PC:bb204     Total:28602      MisBP:509   MisRate:1.78%    MPKI:0.00
PC:bb2be     Total:797      MisBP:515   MisRate:64.62%    MPKI:0.00
PC:d3658     Total:1424      MisBP:520   MisRate:36.52%    MPKI:0.00
PC:d5710     Total:10395      MisBP:521   MisRate:5.01%    MPKI:0.00
PC:3c358     Total:6608      MisBP:530   MisRate:8.02%    MPKI:0.00
PC:bf044     Total:25248      MisBP:542   MisRate:2.15%    MPKI:0.00
PC:4715c     Total:3665368      MisBP:579   MisRate:0.02%    MPKI:0.00
PC:b770a     Total:11470      MisBP:583   MisRate:5.08%    MPKI:0.00
PC:4531e     Total:6211      MisBP:583   MisRate:9.39%    MPKI:0.00
PC:3c34a     Total:6847      MisBP:593   MisRate:8.66%    MPKI:0.00
PC:c04c6     Total:41107      MisBP:593   MisRate:1.44%    MPKI:0.00
PC:d3b9c     Total:17164      MisBP:620   MisRate:3.61%    MPKI:0.00
PC:bea6c     Total:889      MisBP:620   MisRate:69.74%    MPKI:0.00
PC:3c040     Total:126896      MisBP:667   MisRate:0.53%    MPKI:0.00
PC:c04d4     Total:28827      MisBP:676   MisRate:2.35%    MPKI:0.00
PC:be9f4     Total:24623      MisBP:684   MisRate:2.78%    MPKI:0.00
PC:d4796     Total:20529      MisBP:701   MisRate:3.41%    MPKI:0.00
PC:b8742     Total:52284      MisBP:705   MisRate:1.35%    MPKI:0.00
PC:bd26a     Total:9575      MisBP:743   MisRate:7.76%    MPKI:0.00
PC:3bfc0     Total:57708      MisBP:774   MisRate:1.34%    MPKI:0.00
PC:be754     Total:139522      MisBP:785   MisRate:0.56%    MPKI:0.00
PC:3c118     Total:8291      MisBP:804   MisRate:9.70%    MPKI:0.00
PC:3e1aa     Total:1096948      MisBP:869   MisRate:0.08%    MPKI:0.00
PC:bf058     Total:21506      MisBP:884   MisRate:4.11%    MPKI:0.00
PC:3f350     Total:6295      MisBP:890   MisRate:14.14%    MPKI:0.00
PC:457b8     Total:10909      MisBP:904   MisRate:8.29%    MPKI:0.00
PC:bee54     Total:11802      MisBP:995   MisRate:8.43%    MPKI:0.00
PC:45318     Total:10861      MisBP:1012   MisRate:9.32%    MPKI:0.00
PC:b8762     Total:38427      MisBP:1177   MisRate:3.06%    MPKI:0.00
PC:d46aa     Total:5318      MisBP:1217   MisRate:22.88%    MPKI:0.00
PC:c1bd4     Total:4036      MisBP:1254   MisRate:31.07%    MPKI:0.00
PC:bb1f2     Total:30506      MisBP:1372   MisRate:4.50%    MPKI:0.00
PC:bee34     Total:26799      MisBP:1392   MisRate:5.19%    MPKI:0.00
PC:bedd8     Total:57680      MisBP:1395   MisRate:2.42%    MPKI:0.00
PC:3e08e     Total:5178542      MisBP:1405   MisRate:0.03%    MPKI:0.00
PC:d6072     Total:22428      MisBP:1492   MisRate:6.65%    MPKI:0.00
PC:bea10     Total:15313      MisBP:1557   MisRate:10.17%    MPKI:0.01
PC:bf04c     Total:25170      MisBP:1816   MisRate:7.21%    MPKI:0.01
PC:b8760     Total:41109      MisBP:1885   MisRate:4.59%    MPKI:0.01
PC:3e0f0     Total:2604185      MisBP:1979   MisRate:0.08%    MPKI:0.01
PC:bea32     Total:21579      MisBP:2018   MisRate:9.35%    MPKI:0.01
PC:3c000     Total:143864      MisBP:2041   MisRate:1.42%    MPKI:0.01
PC:be812     Total:13804      MisBP:2148   MisRate:15.56%    MPKI:0.01
PC:3c018     Total:124168      MisBP:2179   MisRate:1.75%    MPKI:0.01
PC:3e0e6     Total:3088964      MisBP:2321   MisRate:0.08%    MPKI:0.01
PC:be7fa     Total:21012      MisBP:2474   MisRate:11.77%    MPKI:0.01
PC:d4768     Total:11877      MisBP:2526   MisRate:21.27%    MPKI:0.01
PC:d36be     Total:15845      MisBP:2744   MisRate:17.32%    MPKI:0.01
PC:c04e2     Total:24925      MisBP:2857   MisRate:11.46%    MPKI:0.01
PC:3e1d8     Total:461026      MisBP:2984   MisRate:0.65%    MPKI:0.01
PC:be6f0     Total:147419      MisBP:3207   MisRate:2.18%    MPKI:0.01
PC:bee1a     Total:43313      MisBP:3555   MisRate:8.21%    MPKI:0.01
PC:bee00     Total:63462      MisBP:4570   MisRate:7.20%    MPKI:0.01
PC:bf068     Total:29418      MisBP:4608   MisRate:15.66%    MPKI:0.01
PC:be762     Total:139339      MisBP:4830   MisRate:3.47%    MPKI:0.02
PC:3e1a0     Total:1016681      MisBP:4859   MisRate:0.48%    MPKI:0.02
PC:d52d0     Total:8163      MisBP:5247   MisRate:64.28%    MPKI:0.02
PC:be6da     Total:220071      MisBP:6018   MisRate:2.73%    MPKI:0.02
PC:d479e     Total:9860      MisBP:6094   MisRate:61.81%    MPKI:0.02
PC:c04e8     Total:33015      MisBP:7145   MisRate:21.64%    MPKI:0.02
PC:d4770     Total:12349      MisBP:8330   MisRate:67.45%    MPKI:0.03
PC:d479a     Total:19704      MisBP:9328   MisRate:47.34%    MPKI:0.03
PC:bea58     Total:73294      MisBP:9738   MisRate:13.29%    MPKI:0.03
PC:3bfec     Total:513242      MisBP:9835   MisRate:1.92%    MPKI:0.03
PC:bf07e     Total:10610167      MisBP:11897   MisRate:0.11%    MPKI:0.04
PC:3e1d2     Total:482956      MisBP:15951   MisRate:3.30%    MPKI:0.05
PC:be9f0     Total:286557      MisBP:20598   MisRate:7.19%    MPKI:0.07
PC:b8772     Total:152322      MisBP:25282   MisRate:16.60%    MPKI:0.08
PC:3e12e     Total:3072900      MisBP:34420   MisRate:1.12%    MPKI:0.11
PC:3e1c4     Total:3801609      MisBP:48429   MisRate:1.27%    MPKI:0.16
PC:3e168     Total:597984      MisBP:50750   MisRate:8.49%    MPKI:0.16
PC:bb598     Total:366459      MisBP:69003   MisRate:18.83%    MPKI:0.22
PC:3e1e0     Total:4142337      MisBP:79238   MisRate:1.91%    MPKI:0.26
PC:3e0e8     Total:3071173      MisBP:163754   MisRate:5.33%    MPKI:0.53
Totfetch:353107162  TotInsts:310000004  TotMis : inf%   MPKI : 2.25
=============finish sim!!!!!!=============
Done running SimPoint!
