Global frequency set at 1000000000000 ticks per second
 Register [printBranch()] ExitCallback !!!!!!! 
gem5 Simulator System.  https://www.gem5.org
gem5 is copyrighted software; use the --copyright option for details.

gem5 version 22.0.0.2
gem5 compiled Sep  7 2022 00:42:18
gem5 started Sep  7 2022 04:23:16
gem5 executing on a100, pid 2782662
command line: /data/zxf/gem5/gem5-prof/build/ARM/gem5.fast --outdir=/data/zxf/checkpoint/spec2006/401.bzip2/prof/bzip2_ckp_9 /data/zxf/gem5/gem5-prof/configs/example/se.py --cpu-type O3CPU --cpu-clock 1GHz --num-cpu 1 --l1d-hwp-type=BOPPrefetcher --caches --l2cache --l1i_size 32kB --l1d_size 32kB --l2_size 1MB --l1i_assoc 8 --l1d_assoc 8 --l2_assoc 16 --cacheline_size 64 --mem-type DDR3_2133_8x8 --mem-size 16GB --restore-simpoint-checkpoint -r 9 --checkpoint-dir /data/zxf/checkpoint/spec2006/401.bzip2/ckpt -c bzip2_base.gcc41-64bit -o 'input.source 280'

info: Standard input is not a terminal, disabling listeners.
Resuming from /data/zxf/checkpoint/spec2006/401.bzip2/ckpt/cpt.simpoint_08_inst_168590000000_weight_0.086231_interval_300000000_warmup_10000000
Resuming from SimPoint #8, start_inst:168590000000, weight:0.086231, interval:300000000, warmup:10000000
Switch at curTick count:10000
Switched CPUS @ tick 103991771863000
[(<m5.objects.ArmCPU.ArmAtomicSimpleCPU object at 0x7f6754427bb0>, <m5.objects.ArmCPU.ArmO3CPU object at 0x7f675443fe20>)]
switching cpus



+++++++++++++++++++++++++zxf print simpoint+++++++++++++++++++++++++++
Warmed up! Dumping and resetting stats!


=============start sim!!!!!!=============
PC:1632a     Total:13068      MisBP:0   MisRate:0.00%    MPKI:0.00
PC:16348     Total:13003      MisBP:0   MisRate:0.00%    MPKI:0.00
PC:16346     Total:13003      MisBP:0   MisRate:0.00%    MPKI:0.00
PC:16344     Total:12984      MisBP:0   MisRate:0.00%    MPKI:0.00
PC:16340     Total:12990      MisBP:0   MisRate:0.00%    MPKI:0.00
PC:1633e     Total:13013      MisBP:0   MisRate:0.00%    MPKI:0.00
PC:1633c     Total:13013      MisBP:0   MisRate:0.00%    MPKI:0.00
PC:16338     Total:13014      MisBP:0   MisRate:0.00%    MPKI:0.00
PC:16334     Total:13014      MisBP:0   MisRate:0.00%    MPKI:0.00
PC:16332     Total:13016      MisBP:0   MisRate:0.00%    MPKI:0.00
PC:1632e     Total:13016      MisBP:0   MisRate:0.00%    MPKI:0.00
PC:1632c     Total:13018      MisBP:0   MisRate:0.00%    MPKI:0.00
PC:1634a     Total:13003      MisBP:0   MisRate:0.00%    MPKI:0.00
PC:16328     Total:13066      MisBP:0   MisRate:0.00%    MPKI:0.00
PC:16326     Total:13047      MisBP:0   MisRate:0.00%    MPKI:0.00
PC:16324     Total:13048      MisBP:0   MisRate:0.00%    MPKI:0.00
PC:16322     Total:13050      MisBP:0   MisRate:0.00%    MPKI:0.00
PC:1631e     Total:13044      MisBP:0   MisRate:0.00%    MPKI:0.00
PC:1631c     Total:13044      MisBP:0   MisRate:0.00%    MPKI:0.00
PC:1631a     Total:13056      MisBP:0   MisRate:0.00%    MPKI:0.00
PC:16316     Total:13073      MisBP:0   MisRate:0.00%    MPKI:0.00
PC:16312     Total:13074      MisBP:0   MisRate:0.00%    MPKI:0.00
PC:16310     Total:13078      MisBP:0   MisRate:0.00%    MPKI:0.00
PC:16366     Total:13031      MisBP:0   MisRate:0.00%    MPKI:0.00
PC:18b3a     Total:34      MisBP:0   MisRate:0.00%    MPKI:0.00
PC:1637c     Total:12979      MisBP:0   MisRate:0.00%    MPKI:0.00
PC:18b36     Total:34      MisBP:0   MisRate:0.00%    MPKI:0.00
PC:16378     Total:12979      MisBP:0   MisRate:0.00%    MPKI:0.00
PC:18b32     Total:38      MisBP:0   MisRate:0.00%    MPKI:0.00
PC:16374     Total:12979      MisBP:0   MisRate:0.00%    MPKI:0.00
PC:16370     Total:12979      MisBP:0   MisRate:0.00%    MPKI:0.00
PC:18b2c     Total:38      MisBP:0   MisRate:0.00%    MPKI:0.00
PC:1636e     Total:12979      MisBP:0   MisRate:0.00%    MPKI:0.00
PC:18b28     Total:404      MisBP:0   MisRate:0.00%    MPKI:0.00
PC:1636a     Total:12980      MisBP:0   MisRate:0.00%    MPKI:0.00
PC:1630c     Total:13078      MisBP:0   MisRate:0.00%    MPKI:0.00
PC:16364     Total:13031      MisBP:0   MisRate:0.00%    MPKI:0.00
PC:16362     Total:13031      MisBP:0   MisRate:0.00%    MPKI:0.00
PC:1635e     Total:13021      MisBP:0   MisRate:0.00%    MPKI:0.00
PC:1635c     Total:13021      MisBP:0   MisRate:0.00%    MPKI:0.00
PC:16358     Total:13021      MisBP:0   MisRate:0.00%    MPKI:0.00
PC:16354     Total:13022      MisBP:0   MisRate:0.00%    MPKI:0.00
PC:16352     Total:13022      MisBP:0   MisRate:0.00%    MPKI:0.00
PC:16350     Total:13029      MisBP:0   MisRate:0.00%    MPKI:0.00
PC:1634e     Total:13003      MisBP:0   MisRate:0.00%    MPKI:0.00
PC:1634c     Total:13003      MisBP:0   MisRate:0.00%    MPKI:0.00
PC:162ba     Total:13119      MisBP:0   MisRate:0.00%    MPKI:0.00
PC:162d4     Total:13092      MisBP:0   MisRate:0.00%    MPKI:0.00
PC:162d2     Total:13074      MisBP:0   MisRate:0.00%    MPKI:0.00
PC:162ce     Total:13074      MisBP:0   MisRate:0.00%    MPKI:0.00
PC:162cc     Total:13074      MisBP:0   MisRate:0.00%    MPKI:0.00
PC:162ca     Total:13074      MisBP:0   MisRate:0.00%    MPKI:0.00
PC:162c8     Total:13063      MisBP:0   MisRate:0.00%    MPKI:0.00
PC:162c6     Total:13063      MisBP:0   MisRate:0.00%    MPKI:0.00
PC:162c4     Total:13063      MisBP:0   MisRate:0.00%    MPKI:0.00
PC:162c0     Total:13063      MisBP:0   MisRate:0.00%    MPKI:0.00
PC:162be     Total:13135      MisBP:0   MisRate:0.00%    MPKI:0.00
PC:162bc     Total:13135      MisBP:0   MisRate:0.00%    MPKI:0.00
PC:162d6     Total:13092      MisBP:0   MisRate:0.00%    MPKI:0.00
PC:162b6     Total:13119      MisBP:0   MisRate:0.00%    MPKI:0.00
PC:162b4     Total:13120      MisBP:0   MisRate:0.00%    MPKI:0.00
PC:162b2     Total:13121      MisBP:0   MisRate:0.00%    MPKI:0.00
PC:162b0     Total:13077      MisBP:0   MisRate:0.00%    MPKI:0.00
PC:162ac     Total:13077      MisBP:0   MisRate:0.00%    MPKI:0.00
PC:162aa     Total:13077      MisBP:0   MisRate:0.00%    MPKI:0.00
PC:162a8     Total:13081      MisBP:0   MisRate:0.00%    MPKI:0.00
PC:162a6     Total:13060      MisBP:0   MisRate:0.00%    MPKI:0.00
PC:162a4     Total:13060      MisBP:0   MisRate:0.00%    MPKI:0.00
PC:162a2     Total:13060      MisBP:0   MisRate:0.00%    MPKI:0.00
PC:162ee     Total:13141      MisBP:0   MisRate:0.00%    MPKI:0.00
PC:16308     Total:13083      MisBP:0   MisRate:0.00%    MPKI:0.00
PC:16306     Total:13083      MisBP:0   MisRate:0.00%    MPKI:0.00
PC:16304     Total:13083      MisBP:0   MisRate:0.00%    MPKI:0.00
PC:16300     Total:13084      MisBP:0   MisRate:0.00%    MPKI:0.00
PC:162fe     Total:13119      MisBP:0   MisRate:0.00%    MPKI:0.00
PC:162fc     Total:13119      MisBP:0   MisRate:0.00%    MPKI:0.00
PC:162fa     Total:13140      MisBP:0   MisRate:0.00%    MPKI:0.00
PC:162f8     Total:13141      MisBP:0   MisRate:0.00%    MPKI:0.00
PC:162f4     Total:13141      MisBP:0   MisRate:0.00%    MPKI:0.00
PC:162f2     Total:13141      MisBP:0   MisRate:0.00%    MPKI:0.00
PC:1637e     Total:13007      MisBP:0   MisRate:0.00%    MPKI:0.00
PC:162ec     Total:13141      MisBP:0   MisRate:0.00%    MPKI:0.00
PC:162ea     Total:13141      MisBP:0   MisRate:0.00%    MPKI:0.00
PC:162e8     Total:13120      MisBP:0   MisRate:0.00%    MPKI:0.00
PC:162e6     Total:13120      MisBP:0   MisRate:0.00%    MPKI:0.00
PC:162e4     Total:13115      MisBP:0   MisRate:0.00%    MPKI:0.00
PC:162e2     Total:13115      MisBP:0   MisRate:0.00%    MPKI:0.00
PC:162e0     Total:13111      MisBP:0   MisRate:0.00%    MPKI:0.00
PC:162de     Total:13111      MisBP:0   MisRate:0.00%    MPKI:0.00
PC:162da     Total:13092      MisBP:0   MisRate:0.00%    MPKI:0.00
PC:162d8     Total:13092      MisBP:0   MisRate:0.00%    MPKI:0.00
PC:163ce     Total:13089      MisBP:0   MisRate:0.00%    MPKI:0.00
PC:18b9a     Total:68      MisBP:0   MisRate:0.00%    MPKI:0.00
PC:163dc     Total:13106      MisBP:0   MisRate:0.00%    MPKI:0.00
PC:163da     Total:13106      MisBP:0   MisRate:0.00%    MPKI:0.00
PC:18b94     Total:68      MisBP:0   MisRate:0.00%    MPKI:0.00
PC:163d6     Total:13106      MisBP:0   MisRate:0.00%    MPKI:0.00
PC:18b92     Total:72      MisBP:0   MisRate:0.00%    MPKI:0.00
PC:163d4     Total:13106      MisBP:0   MisRate:0.00%    MPKI:0.00
PC:163d2     Total:13084      MisBP:0   MisRate:0.00%    MPKI:0.00
PC:18b8e     Total:67      MisBP:0   MisRate:0.00%    MPKI:0.00
PC:163d0     Total:13084      MisBP:0   MisRate:0.00%    MPKI:0.00
PC:18b8c     Total:67      MisBP:0   MisRate:0.00%    MPKI:0.00
PC:163e0     Total:13106      MisBP:0   MisRate:0.00%    MPKI:0.00
PC:163cc     Total:13052      MisBP:0   MisRate:0.00%    MPKI:0.00
PC:18b88     Total:67      MisBP:0   MisRate:0.00%    MPKI:0.00
PC:163ca     Total:13052      MisBP:0   MisRate:0.00%    MPKI:0.00
PC:18b86     Total:38      MisBP:0   MisRate:0.00%    MPKI:0.00
PC:163c8     Total:13052      MisBP:0   MisRate:0.00%    MPKI:0.00
PC:18b84     Total:38      MisBP:0   MisRate:0.00%    MPKI:0.00
PC:163c6     Total:13036      MisBP:0   MisRate:0.00%    MPKI:0.00
PC:18b82     Total:38      MisBP:0   MisRate:0.00%    MPKI:0.00
PC:163c4     Total:13039      MisBP:0   MisRate:0.00%    MPKI:0.00
PC:18b80     Total:38      MisBP:0   MisRate:0.00%    MPKI:0.00
PC:18baa     Total:72      MisBP:0   MisRate:0.00%    MPKI:0.00
PC:163f4     Total:13244      MisBP:0   MisRate:0.00%    MPKI:0.00
PC:18bb0     Total:5557      MisBP:0   MisRate:0.00%    MPKI:0.00
PC:1dbf2     Total:295      MisBP:0   MisRate:0.00%    MPKI:0.00
PC:163f2     Total:13244      MisBP:0   MisRate:0.00%    MPKI:0.00
PC:18bae     Total:72      MisBP:0   MisRate:0.00%    MPKI:0.00
PC:1dbf0     Total:295      MisBP:0   MisRate:0.00%    MPKI:0.00
PC:163f0     Total:13244      MisBP:0   MisRate:0.00%    MPKI:0.00
PC:18bac     Total:72      MisBP:0   MisRate:0.00%    MPKI:0.00
PC:1dbee     Total:590      MisBP:0   MisRate:0.00%    MPKI:0.00
PC:163ee     Total:13244      MisBP:0   MisRate:0.00%    MPKI:0.00
PC:163c2     Total:13009      MisBP:0   MisRate:0.00%    MPKI:0.00
PC:1dbec     Total:1184      MisBP:0   MisRate:0.00%    MPKI:0.00
PC:163ec     Total:13244      MisBP:0   MisRate:0.00%    MPKI:0.00
PC:163ea     Total:13220      MisBP:0   MisRate:0.00%    MPKI:0.00
PC:18ba6     Total:72      MisBP:0   MisRate:0.00%    MPKI:0.00
PC:163e8     Total:13220      MisBP:0   MisRate:0.00%    MPKI:0.00
PC:18ba4     Total:72      MisBP:0   MisRate:0.00%    MPKI:0.00
PC:163e6     Total:13118      MisBP:0   MisRate:0.00%    MPKI:0.00
PC:163e4     Total:13118      MisBP:0   MisRate:0.00%    MPKI:0.00
PC:18ba0     Total:72      MisBP:0   MisRate:0.00%    MPKI:0.00
PC:163e2     Total:13134      MisBP:0   MisRate:0.00%    MPKI:0.00
PC:18b4c     Total:31      MisBP:0   MisRate:0.00%    MPKI:0.00
PC:163a0     Total:12993      MisBP:0   MisRate:0.00%    MPKI:0.00
PC:18b5c     Total:2515      MisBP:0   MisRate:0.00%    MPKI:0.00
PC:1639e     Total:12993      MisBP:0   MisRate:0.00%    MPKI:0.00
PC:1639a     Total:12993      MisBP:0   MisRate:0.00%    MPKI:0.00
PC:18b56     Total:4217      MisBP:0   MisRate:0.00%    MPKI:0.00
PC:16398     Total:12993      MisBP:0   MisRate:0.00%    MPKI:0.00
PC:16396     Total:12993      MisBP:0   MisRate:0.00%    MPKI:0.00
PC:18b52     Total:8434      MisBP:0   MisRate:0.00%    MPKI:0.00
PC:16394     Total:13013      MisBP:0   MisRate:0.00%    MPKI:0.00
PC:18b4e     Total:31      MisBP:0   MisRate:0.00%    MPKI:0.00
PC:16390     Total:13013      MisBP:0   MisRate:0.00%    MPKI:0.00
PC:18b5e     Total:4431      MisBP:0   MisRate:0.00%    MPKI:0.00
PC:1638e     Total:13013      MisBP:0   MisRate:0.00%    MPKI:0.00
PC:18b4a     Total:31      MisBP:0   MisRate:0.00%    MPKI:0.00
PC:1638c     Total:13013      MisBP:0   MisRate:0.00%    MPKI:0.00
PC:18b46     Total:31      MisBP:0   MisRate:0.00%    MPKI:0.00
PC:16388     Total:12968      MisBP:0   MisRate:0.00%    MPKI:0.00
PC:16384     Total:12968      MisBP:0   MisRate:0.00%    MPKI:0.00
PC:18b40     Total:31      MisBP:0   MisRate:0.00%    MPKI:0.00
PC:16382     Total:12969      MisBP:0   MisRate:0.00%    MPKI:0.00
PC:18b3e     Total:34      MisBP:0   MisRate:0.00%    MPKI:0.00
PC:16380     Total:12969      MisBP:0   MisRate:0.00%    MPKI:0.00
PC:163ae     Total:12996      MisBP:0   MisRate:0.00%    MPKI:0.00
PC:18b7c     Total:41      MisBP:0   MisRate:0.00%    MPKI:0.00
PC:163be     Total:13009      MisBP:0   MisRate:0.00%    MPKI:0.00
PC:163ba     Total:13049      MisBP:0   MisRate:0.00%    MPKI:0.00
PC:18b76     Total:41      MisBP:0   MisRate:0.00%    MPKI:0.00
PC:163b8     Total:13049      MisBP:0   MisRate:0.00%    MPKI:0.00
PC:18b74     Total:41      MisBP:0   MisRate:0.00%    MPKI:0.00
PC:163b6     Total:12996      MisBP:0   MisRate:0.00%    MPKI:0.00
PC:18b70     Total:41      MisBP:0   MisRate:0.00%    MPKI:0.00
PC:163b2     Total:12996      MisBP:0   MisRate:0.00%    MPKI:0.00
PC:18b6c     Total:42      MisBP:0   MisRate:0.00%    MPKI:0.00
PC:162a0     Total:13061      MisBP:0   MisRate:0.00%    MPKI:0.00
PC:18b6a     Total:42      MisBP:0   MisRate:0.00%    MPKI:0.00
PC:163ac     Total:12996      MisBP:0   MisRate:0.00%    MPKI:0.00
PC:18b68     Total:42      MisBP:0   MisRate:0.00%    MPKI:0.00
PC:163aa     Total:13010      MisBP:0   MisRate:0.00%    MPKI:0.00
PC:18b66     Total:42      MisBP:0   MisRate:0.00%    MPKI:0.00
PC:163a8     Total:12987      MisBP:0   MisRate:0.00%    MPKI:0.00
PC:163a6     Total:12993      MisBP:0   MisRate:0.00%    MPKI:0.00
PC:163a4     Total:12993      MisBP:0   MisRate:0.00%    MPKI:0.00
PC:18b60     Total:8862      MisBP:0   MisRate:0.00%    MPKI:0.00
PC:163a2     Total:12993      MisBP:0   MisRate:0.00%    MPKI:0.00
PC:16192     Total:13031      MisBP:0   MisRate:0.00%    MPKI:0.00
PC:161ac     Total:12975      MisBP:0   MisRate:0.00%    MPKI:0.00
PC:161aa     Total:12975      MisBP:0   MisRate:0.00%    MPKI:0.00
PC:161a8     Total:12975      MisBP:0   MisRate:0.00%    MPKI:0.00
PC:161a6     Total:12996      MisBP:0   MisRate:0.00%    MPKI:0.00
PC:161a4     Total:13000      MisBP:0   MisRate:0.00%    MPKI:0.00
PC:161a0     Total:13000      MisBP:0   MisRate:0.00%    MPKI:0.00
PC:1619e     Total:13000      MisBP:0   MisRate:0.00%    MPKI:0.00
PC:1619c     Total:13000      MisBP:0   MisRate:0.00%    MPKI:0.00
PC:1619a     Total:13000      MisBP:0   MisRate:0.00%    MPKI:0.00
PC:16196     Total:13017      MisBP:0   MisRate:0.00%    MPKI:0.00
PC:16194     Total:13017      MisBP:0   MisRate:0.00%    MPKI:0.00
PC:161ae     Total:12975      MisBP:0   MisRate:0.00%    MPKI:0.00
PC:1618e     Total:13012      MisBP:0   MisRate:0.00%    MPKI:0.00
PC:1618a     Total:13012      MisBP:0   MisRate:0.00%    MPKI:0.00
PC:16188     Total:13012      MisBP:0   MisRate:0.00%    MPKI:0.00
PC:16186     Total:13010      MisBP:0   MisRate:0.00%    MPKI:0.00
PC:16184     Total:13010      MisBP:0   MisRate:0.00%    MPKI:0.00
PC:16182     Total:12992      MisBP:0   MisRate:0.00%    MPKI:0.00
PC:1617e     Total:12992      MisBP:0   MisRate:0.00%    MPKI:0.00
PC:1617a     Total:13029      MisBP:0   MisRate:0.00%    MPKI:0.00
PC:16178     Total:13048      MisBP:0   MisRate:0.00%    MPKI:0.00
PC:16174     Total:13048      MisBP:0   MisRate:0.00%    MPKI:0.00
PC:161cc     Total:12981      MisBP:0   MisRate:0.00%    MPKI:0.00
PC:111a6     Total:51      MisBP:0   MisRate:0.00%    MPKI:0.00
PC:161e6     Total:12977      MisBP:0   MisRate:0.00%    MPKI:0.00
PC:111a4     Total:51      MisBP:0   MisRate:0.00%    MPKI:0.00
PC:161dc     Total:12978      MisBP:0   MisRate:0.00%    MPKI:0.00
PC:161d8     Total:12977      MisBP:0   MisRate:0.00%    MPKI:0.00
PC:161d4     Total:12980      MisBP:0   MisRate:0.00%    MPKI:0.00
PC:161d2     Total:12975      MisBP:0   MisRate:0.00%    MPKI:0.00
PC:11190     Total:364      MisBP:0   MisRate:0.00%    MPKI:0.00
PC:161d0     Total:12979      MisBP:0   MisRate:0.00%    MPKI:0.00
PC:161ce     Total:12979      MisBP:0   MisRate:0.00%    MPKI:0.00
PC:16170     Total:13048      MisBP:0   MisRate:0.00%    MPKI:0.00
PC:161ca     Total:12981      MisBP:0   MisRate:0.00%    MPKI:0.00
PC:161c8     Total:12962      MisBP:0   MisRate:0.00%    MPKI:0.00
PC:161c4     Total:12962      MisBP:0   MisRate:0.00%    MPKI:0.00
PC:161c0     Total:12962      MisBP:0   MisRate:0.00%    MPKI:0.00
PC:161be     Total:12999      MisBP:0   MisRate:0.00%    MPKI:0.00
PC:161bc     Total:12981      MisBP:0   MisRate:0.00%    MPKI:0.00
PC:161b8     Total:12981      MisBP:0   MisRate:0.00%    MPKI:0.00
PC:161b4     Total:12994      MisBP:0   MisRate:0.00%    MPKI:0.00
PC:161b2     Total:12994      MisBP:0   MisRate:0.00%    MPKI:0.00
PC:161b0     Total:12994      MisBP:0   MisRate:0.00%    MPKI:0.00
PC:16122     Total:13034      MisBP:0   MisRate:0.00%    MPKI:0.00
PC:1613a     Total:13043      MisBP:0   MisRate:0.00%    MPKI:0.00
PC:111bc     Total:50      MisBP:0   MisRate:0.00%    MPKI:0.00
PC:16138     Total:13043      MisBP:0   MisRate:0.00%    MPKI:0.00
PC:16134     Total:13043      MisBP:0   MisRate:0.00%    MPKI:0.00
PC:16132     Total:13043      MisBP:0   MisRate:0.00%    MPKI:0.00
PC:16130     Total:13043      MisBP:0   MisRate:0.00%    MPKI:0.00
PC:1612e     Total:13039      MisBP:0   MisRate:0.00%    MPKI:0.00
PC:1612c     Total:13035      MisBP:0   MisRate:0.00%    MPKI:0.00
PC:1612a     Total:13036      MisBP:0   MisRate:0.00%    MPKI:0.00
PC:16128     Total:13036      MisBP:0   MisRate:0.00%    MPKI:0.00
PC:16124     Total:13034      MisBP:0   MisRate:0.00%    MPKI:0.00
PC:1613e     Total:13001      MisBP:0   MisRate:0.00%    MPKI:0.00
PC:16120     Total:13034      MisBP:0   MisRate:0.00%    MPKI:0.00
PC:111a0     Total:51      MisBP:0   MisRate:0.00%    MPKI:0.00
PC:1611c     Total:13034      MisBP:0   MisRate:0.00%    MPKI:0.00
PC:1119c     Total:51      MisBP:0   MisRate:0.00%    MPKI:0.00
PC:16118     Total:13045      MisBP:0   MisRate:0.00%    MPKI:0.00
PC:16116     Total:13051      MisBP:0   MisRate:0.00%    MPKI:0.00
PC:16112     Total:13053      MisBP:0   MisRate:0.00%    MPKI:0.00
PC:1610e     Total:13053      MisBP:0   MisRate:0.00%    MPKI:0.00
PC:1610c     Total:13054      MisBP:0   MisRate:0.00%    MPKI:0.00
PC:1610a     Total:13057      MisBP:0   MisRate:0.00%    MPKI:0.00
PC:16154     Total:13028      MisBP:0   MisRate:0.00%    MPKI:0.00
PC:1616c     Total:13048      MisBP:0   MisRate:0.00%    MPKI:0.00
PC:16168     Total:13048      MisBP:0   MisRate:0.00%    MPKI:0.00
PC:16166     Total:13048      MisBP:0   MisRate:0.00%    MPKI:0.00
PC:16164     Total:13067      MisBP:0   MisRate:0.00%    MPKI:0.00
PC:16162     Total:13067      MisBP:0   MisRate:0.00%    MPKI:0.00
PC:16160     Total:13067      MisBP:0   MisRate:0.00%    MPKI:0.00
PC:1615e     Total:13028      MisBP:0   MisRate:0.00%    MPKI:0.00
PC:1615a     Total:13028      MisBP:0   MisRate:0.00%    MPKI:0.00
PC:111da     Total:30      MisBP:0   MisRate:0.00%    MPKI:0.00
PC:16156     Total:13028      MisBP:0   MisRate:0.00%    MPKI:0.00
PC:161e8     Total:12975      MisBP:0   MisRate:0.00%    MPKI:0.00
PC:16150     Total:13030      MisBP:0   MisRate:0.00%    MPKI:0.00
PC:1614e     Total:13033      MisBP:0   MisRate:0.00%    MPKI:0.00
PC:1614c     Total:13033      MisBP:0   MisRate:0.00%    MPKI:0.00
PC:111ce     Total:31      MisBP:0   MisRate:0.00%    MPKI:0.00
PC:1614a     Total:13033      MisBP:0   MisRate:0.00%    MPKI:0.00
PC:16148     Total:13033      MisBP:0   MisRate:0.00%    MPKI:0.00
PC:111ca     Total:35      MisBP:0   MisRate:0.00%    MPKI:0.00
PC:16146     Total:13012      MisBP:0   MisRate:0.00%    MPKI:0.00
PC:16144     Total:13012      MisBP:0   MisRate:0.00%    MPKI:0.00
PC:16142     Total:13001      MisBP:0   MisRate:0.00%    MPKI:0.00
PC:16250     Total:13078      MisBP:0   MisRate:0.00%    MPKI:0.00
PC:16268     Total:13046      MisBP:0   MisRate:0.00%    MPKI:0.00
PC:16266     Total:13048      MisBP:0   MisRate:0.00%    MPKI:0.00
PC:16264     Total:13048      MisBP:0   MisRate:0.00%    MPKI:0.00
PC:16262     Total:13052      MisBP:0   MisRate:0.00%    MPKI:0.00
PC:16260     Total:13052      MisBP:0   MisRate:0.00%    MPKI:0.00
PC:1625c     Total:13052      MisBP:0   MisRate:0.00%    MPKI:0.00
PC:1625a     Total:13052      MisBP:0   MisRate:0.00%    MPKI:0.00
PC:16258     Total:13046      MisBP:0   MisRate:0.00%    MPKI:0.00
PC:16256     Total:13047      MisBP:0   MisRate:0.00%    MPKI:0.00
PC:16254     Total:13049      MisBP:0   MisRate:0.00%    MPKI:0.00
PC:16252     Total:13050      MisBP:0   MisRate:0.00%    MPKI:0.00
PC:1626a     Total:13046      MisBP:0   MisRate:0.00%    MPKI:0.00
PC:1624e     Total:13078      MisBP:0   MisRate:0.00%    MPKI:0.00
PC:1624c     Total:13078      MisBP:0   MisRate:0.00%    MPKI:0.00
PC:16248     Total:13078      MisBP:0   MisRate:0.00%    MPKI:0.00
PC:16246     Total:13078      MisBP:0   MisRate:0.00%    MPKI:0.00
PC:16244     Total:13079      MisBP:0   MisRate:0.00%    MPKI:0.00
PC:16242     Total:13039      MisBP:0   MisRate:0.00%    MPKI:0.00
PC:16240     Total:13039      MisBP:0   MisRate:0.00%    MPKI:0.00
PC:1623e     Total:13051      MisBP:0   MisRate:0.00%    MPKI:0.00
PC:1623c     Total:13051      MisBP:0   MisRate:0.00%    MPKI:0.00
PC:1623a     Total:13026      MisBP:0   MisRate:0.00%    MPKI:0.00
PC:16288     Total:12972      MisBP:0   MisRate:0.00%    MPKI:0.00
PC:1629e     Total:13021      MisBP:0   MisRate:0.00%    MPKI:0.00
PC:1629c     Total:13022      MisBP:0   MisRate:0.00%    MPKI:0.00
PC:1629a     Total:13010      MisBP:0   MisRate:0.00%    MPKI:0.00
PC:16296     Total:13011      MisBP:0   MisRate:0.00%    MPKI:0.00
PC:16294     Total:13011      MisBP:0   MisRate:0.00%    MPKI:0.00
PC:16292     Total:13014      MisBP:0   MisRate:0.00%    MPKI:0.00
PC:16290     Total:12984      MisBP:0   MisRate:0.00%    MPKI:0.00
PC:1628e     Total:12984      MisBP:0   MisRate:0.00%    MPKI:0.00
PC:1628c     Total:12984      MisBP:0   MisRate:0.00%    MPKI:0.00
PC:1628a     Total:12972      MisBP:0   MisRate:0.00%    MPKI:0.00
PC:16238     Total:13026      MisBP:0   MisRate:0.00%    MPKI:0.00
PC:16284     Total:12972      MisBP:0   MisRate:0.00%    MPKI:0.00
PC:16282     Total:12972      MisBP:0   MisRate:0.00%    MPKI:0.00
PC:16280     Total:12972      MisBP:0   MisRate:0.00%    MPKI:0.00
PC:1627e     Total:13024      MisBP:0   MisRate:0.00%    MPKI:0.00
PC:1627c     Total:13024      MisBP:0   MisRate:0.00%    MPKI:0.00
PC:1627a     Total:13024      MisBP:0   MisRate:0.00%    MPKI:0.00
PC:16276     Total:13046      MisBP:0   MisRate:0.00%    MPKI:0.00
PC:16274     Total:13046      MisBP:0   MisRate:0.00%    MPKI:0.00
PC:16270     Total:13046      MisBP:0   MisRate:0.00%    MPKI:0.00
PC:1626e     Total:13046      MisBP:0   MisRate:0.00%    MPKI:0.00
PC:161f6     Total:13015      MisBP:0   MisRate:0.00%    MPKI:0.00
PC:111c8     Total:35      MisBP:0   MisRate:0.00%    MPKI:0.00
PC:16208     Total:12992      MisBP:0   MisRate:0.00%    MPKI:0.00
PC:111c6     Total:35      MisBP:0   MisRate:0.00%    MPKI:0.00
PC:16204     Total:12994      MisBP:0   MisRate:0.00%    MPKI:0.00
PC:111c2     Total:35      MisBP:0   MisRate:0.00%    MPKI:0.00
PC:16200     Total:12994      MisBP:0   MisRate:0.00%    MPKI:0.00
PC:111be     Total:35      MisBP:0   MisRate:0.00%    MPKI:0.00
PC:161fc     Total:13030      MisBP:0   MisRate:0.00%    MPKI:0.00
PC:161fa     Total:13030      MisBP:0   MisRate:0.00%    MPKI:0.00
PC:111b8     Total:50      MisBP:0   MisRate:0.00%    MPKI:0.00
PC:161f8     Total:13014      MisBP:0   MisRate:0.00%    MPKI:0.00
PC:1620a     Total:12992      MisBP:0   MisRate:0.00%    MPKI:0.00
PC:111b4     Total:50      MisBP:0   MisRate:0.00%    MPKI:0.00
PC:161f4     Total:13015      MisBP:0   MisRate:0.00%    MPKI:0.00
PC:161f2     Total:13015      MisBP:0   MisRate:0.00%    MPKI:0.00
PC:111b0     Total:50      MisBP:0   MisRate:0.00%    MPKI:0.00
PC:161f0     Total:13022      MisBP:0   MisRate:0.00%    MPKI:0.00
PC:111ae     Total:50      MisBP:0   MisRate:0.00%    MPKI:0.00
PC:161ee     Total:13022      MisBP:0   MisRate:0.00%    MPKI:0.00
PC:111ac     Total:50      MisBP:0   MisRate:0.00%    MPKI:0.00
PC:161ea     Total:12995      MisBP:0   MisRate:0.00%    MPKI:0.00
PC:111a8     Total:51      MisBP:0   MisRate:0.00%    MPKI:0.00
PC:16224     Total:13044      MisBP:0   MisRate:0.00%    MPKI:0.00
PC:16236     Total:13030      MisBP:0   MisRate:0.00%    MPKI:0.00
PC:16232     Total:13036      MisBP:0   MisRate:0.00%    MPKI:0.00
PC:111f0     Total:23      MisBP:0   MisRate:0.00%    MPKI:0.00
PC:1622c     Total:13038      MisBP:0   MisRate:0.00%    MPKI:0.00
PC:111ea     Total:8      MisBP:0   MisRate:0.00%    MPKI:0.00
PC:1622a     Total:13039      MisBP:0   MisRate:0.00%    MPKI:0.00
PC:16228     Total:13044      MisBP:0   MisRate:0.00%    MPKI:0.00
PC:111e6     Total:8      MisBP:0   MisRate:0.00%    MPKI:0.00
PC:16226     Total:13044      MisBP:0   MisRate:0.00%    MPKI:0.00
PC:111e4     Total:8      MisBP:0   MisRate:0.00%    MPKI:0.00
PC:1dbf4     Total:564      MisBP:0   MisRate:0.00%    MPKI:0.00
PC:16220     Total:12990      MisBP:0   MisRate:0.00%    MPKI:0.00
PC:1621a     Total:12976      MisBP:0   MisRate:0.00%    MPKI:0.00
PC:111d8     Total:30      MisBP:0   MisRate:0.00%    MPKI:0.00
PC:16216     Total:12983      MisBP:0   MisRate:0.00%    MPKI:0.00
PC:111d4     Total:30      MisBP:0   MisRate:0.00%    MPKI:0.00
PC:16214     Total:12983      MisBP:0   MisRate:0.00%    MPKI:0.00
PC:111d2     Total:31      MisBP:0   MisRate:0.00%    MPKI:0.00
PC:16212     Total:12983      MisBP:0   MisRate:0.00%    MPKI:0.00
PC:111d0     Total:31      MisBP:0   MisRate:0.00%    MPKI:0.00
PC:1620e     Total:12987      MisBP:0   MisRate:0.00%    MPKI:0.00
PC:18d0e     Total:4394      MisBP:0   MisRate:0.00%    MPKI:0.00
PC:16568     Total:1      MisBP:0   MisRate:0.00%    MPKI:0.00
PC:18d22     Total:4288      MisBP:0   MisRate:0.00%    MPKI:0.00
PC:16564     Total:1      MisBP:0   MisRate:0.00%    MPKI:0.00
PC:16562     Total:1      MisBP:0   MisRate:0.00%    MPKI:0.00
PC:1655e     Total:1      MisBP:0   MisRate:0.00%    MPKI:0.00
PC:18d18     Total:4364      MisBP:0   MisRate:0.00%    MPKI:0.00
PC:1655a     Total:1      MisBP:0   MisRate:0.00%    MPKI:0.00
PC:18d14     Total:4392      MisBP:0   MisRate:0.00%    MPKI:0.00
PC:16556     Total:1      MisBP:0   MisRate:0.00%    MPKI:0.00
PC:18d12     Total:4394      MisBP:0   MisRate:0.00%    MPKI:0.00
PC:16554     Total:1      MisBP:0   MisRate:0.00%    MPKI:0.00
PC:18d26     Total:4268      MisBP:0   MisRate:0.00%    MPKI:0.00
PC:16550     Total:13034      MisBP:0   MisRate:0.00%    MPKI:0.00
PC:1654c     Total:13034      MisBP:0   MisRate:0.00%    MPKI:0.00
PC:16548     Total:13034      MisBP:0   MisRate:0.00%    MPKI:0.00
PC:18d02     Total:4392      MisBP:0   MisRate:0.00%    MPKI:0.00
PC:16544     Total:13034      MisBP:0   MisRate:0.00%    MPKI:0.00
PC:16540     Total:13034      MisBP:0   MisRate:0.00%    MPKI:0.00
PC:18cfa     Total:16108      MisBP:0   MisRate:0.00%    MPKI:0.00
PC:1653c     Total:13063      MisBP:0   MisRate:0.00%    MPKI:0.00
PC:18cf6     Total:16595      MisBP:0   MisRate:0.00%    MPKI:0.00
PC:16538     Total:13063      MisBP:0   MisRate:0.00%    MPKI:0.00
PC:1549a     Total:9      MisBP:0   MisRate:0.00%    MPKI:0.00
PC:29364     Total:18      MisBP:0   MisRate:0.00%    MPKI:0.00
PC:1525c     Total:7      MisBP:0   MisRate:0.00%    MPKI:0.00
PC:15574     Total:12819      MisBP:0   MisRate:0.00%    MPKI:0.00
PC:2967c     Total:147      MisBP:0   MisRate:0.00%    MPKI:0.00
PC:12db4     Total:20      MisBP:0   MisRate:0.00%    MPKI:0.00
PC:15572     Total:12819      MisBP:0   MisRate:0.00%    MPKI:0.00
PC:154b4     Total:84      MisBP:0   MisRate:0.00%    MPKI:0.00
PC:295bc     Total:1978      MisBP:0   MisRate:0.00%    MPKI:0.00
PC:154ac     Total:9      MisBP:0   MisRate:0.00%    MPKI:0.00
PC:295b4     Total:1978      MisBP:0   MisRate:0.00%    MPKI:0.00
PC:1549e     Total:9      MisBP:0   MisRate:0.00%    MPKI:0.00
PC:18cf4     Total:16715      MisBP:0   MisRate:0.00%    MPKI:0.00
PC:15496     Total:12822      MisBP:0   MisRate:0.00%    MPKI:0.00
PC:15492     Total:12824      MisBP:0   MisRate:0.00%    MPKI:0.00
PC:1548e     Total:12824      MisBP:0   MisRate:0.00%    MPKI:0.00
PC:15486     Total:12824      MisBP:0   MisRate:0.00%    MPKI:0.00
PC:16572     Total:1      MisBP:0   MisRate:0.00%    MPKI:0.00
PC:18d2e     Total:4172      MisBP:0   MisRate:0.00%    MPKI:0.00
PC:16570     Total:1      MisBP:0   MisRate:0.00%    MPKI:0.00
PC:18d2a     Total:4246      MisBP:0   MisRate:0.00%    MPKI:0.00
PC:1656c     Total:1      MisBP:0   MisRate:0.00%    MPKI:0.00
PC:1656a     Total:1      MisBP:0   MisRate:0.00%    MPKI:0.00
PC:18cc2     Total:140      MisBP:0   MisRate:0.00%    MPKI:0.00
PC:16514     Total:13051      MisBP:0   MisRate:0.00%    MPKI:0.00
PC:16512     Total:13051      MisBP:0   MisRate:0.00%    MPKI:0.00
PC:18cce     Total:15524      MisBP:0   MisRate:0.00%    MPKI:0.00
PC:16510     Total:13068      MisBP:0   MisRate:0.00%    MPKI:0.00
PC:1650e     Total:13068      MisBP:0   MisRate:0.00%    MPKI:0.00
PC:18cca     Total:15537      MisBP:0   MisRate:0.00%    MPKI:0.00
PC:1650c     Total:13068      MisBP:0   MisRate:0.00%    MPKI:0.00
PC:18cc8     Total:15583      MisBP:0   MisRate:0.00%    MPKI:0.00
PC:1650a     Total:13079      MisBP:0   MisRate:0.00%    MPKI:0.00
PC:18cc6     Total:15599      MisBP:0   MisRate:0.00%    MPKI:0.00
PC:16508     Total:13082      MisBP:0   MisRate:0.00%    MPKI:0.00
PC:18cd2     Total:17168      MisBP:0   MisRate:0.00%    MPKI:0.00
PC:16504     Total:13064      MisBP:0   MisRate:0.00%    MPKI:0.00
PC:16502     Total:13064      MisBP:0   MisRate:0.00%    MPKI:0.00
PC:18cbe     Total:140      MisBP:0   MisRate:0.00%    MPKI:0.00
PC:16500     Total:13064      MisBP:0   MisRate:0.00%    MPKI:0.00
PC:18cba     Total:141      MisBP:0   MisRate:0.00%    MPKI:0.00
PC:164fc     Total:13099      MisBP:0   MisRate:0.00%    MPKI:0.00
PC:164fa     Total:13101      MisBP:0   MisRate:0.00%    MPKI:0.00
PC:1dc32     Total:5      MisBP:0   MisRate:0.00%    MPKI:0.00
PC:18bf0     Total:4620      MisBP:0   MisRate:0.00%    MPKI:0.00
PC:18cb6     Total:141      MisBP:0   MisRate:0.00%    MPKI:0.00
PC:16522     Total:13111      MisBP:0   MisRate:0.00%    MPKI:0.00
PC:16536     Total:13110      MisBP:0   MisRate:0.00%    MPKI:0.00
PC:18cf0     Total:16881      MisBP:0   MisRate:0.00%    MPKI:0.00
PC:16532     Total:13110      MisBP:0   MisRate:0.00%    MPKI:0.00
PC:18cee     Total:16910      MisBP:0   MisRate:0.00%    MPKI:0.00
PC:16530     Total:13110      MisBP:0   MisRate:0.00%    MPKI:0.00
PC:1652e     Total:13111      MisBP:0   MisRate:0.00%    MPKI:0.00
PC:1652a     Total:13111      MisBP:0   MisRate:0.00%    MPKI:0.00
PC:16526     Total:13111      MisBP:0   MisRate:0.00%    MPKI:0.00
PC:18ce2     Total:17000      MisBP:0   MisRate:0.00%    MPKI:0.00
PC:16524     Total:13111      MisBP:0   MisRate:0.00%    MPKI:0.00
PC:12db6     Total:20      MisBP:0   MisRate:0.00%    MPKI:0.00
PC:18cde     Total:16998      MisBP:0   MisRate:0.00%    MPKI:0.00
PC:16520     Total:13125      MisBP:0   MisRate:0.00%    MPKI:0.00
PC:18cdc     Total:16999      MisBP:0   MisRate:0.00%    MPKI:0.00
PC:1651e     Total:13125      MisBP:0   MisRate:0.00%    MPKI:0.00
PC:18cda     Total:17020      MisBP:0   MisRate:0.00%    MPKI:0.00
PC:1651c     Total:13085      MisBP:0   MisRate:0.00%    MPKI:0.00
PC:1651a     Total:13086      MisBP:0   MisRate:0.00%    MPKI:0.00
PC:16518     Total:13071      MisBP:0   MisRate:0.00%    MPKI:0.00
PC:18cd4     Total:17146      MisBP:0   MisRate:0.00%    MPKI:0.00
PC:16516     Total:13071      MisBP:0   MisRate:0.00%    MPKI:0.00
PC:15294     Total:9      MisBP:0   MisRate:0.00%    MPKI:0.00
PC:155bc     Total:12844      MisBP:0   MisRate:0.00%    MPKI:0.00
PC:296c4     Total:146      MisBP:0   MisRate:0.00%    MPKI:0.00
PC:155ba     Total:12844      MisBP:0   MisRate:0.00%    MPKI:0.00
PC:293a8     Total:50      MisBP:0   MisRate:0.00%    MPKI:0.00
PC:152a0     Total:8      MisBP:0   MisRate:0.00%    MPKI:0.00
PC:155b8     Total:12844      MisBP:0   MisRate:0.00%    MPKI:0.00
PC:296c0     Total:146      MisBP:0   MisRate:0.00%    MPKI:0.00
PC:155b6     Total:12844      MisBP:0   MisRate:0.00%    MPKI:0.00
PC:155b2     Total:12837      MisBP:0   MisRate:0.00%    MPKI:0.00
PC:155ae     Total:12837      MisBP:0   MisRate:0.00%    MPKI:0.00
PC:2939c     Total:26      MisBP:0   MisRate:0.00%    MPKI:0.00
PC:152a4     Total:8      MisBP:0   MisRate:0.00%    MPKI:0.00
PC:155ac     Total:12837      MisBP:0   MisRate:0.00%    MPKI:0.00
PC:296b4     Total:146      MisBP:0   MisRate:0.00%    MPKI:0.00
PC:155aa     Total:12838      MisBP:0   MisRate:0.00%    MPKI:0.00
PC:29398     Total:52      MisBP:0   MisRate:0.00%    MPKI:0.00
PC:15290     Total:165      MisBP:0   MisRate:0.00%    MPKI:0.00
PC:155a8     Total:12838      MisBP:0   MisRate:0.00%    MPKI:0.00
PC:296b0     Total:146      MisBP:0   MisRate:0.00%    MPKI:0.00
PC:155a6     Total:12838      MisBP:0   MisRate:0.00%    MPKI:0.00
PC:29394     Total:52      MisBP:0   MisRate:0.00%    MPKI:0.00
PC:1528c     Total:165      MisBP:0   MisRate:0.00%    MPKI:0.00
PC:296d0     Total:146      MisBP:0   MisRate:0.00%    MPKI:0.00
PC:12e0e     Total:21248      MisBP:0   MisRate:0.00%    MPKI:0.00
PC:293bc     Total:172      MisBP:0   MisRate:0.00%    MPKI:0.00
PC:155cc     Total:12867      MisBP:0   MisRate:0.00%    MPKI:0.00
PC:296d4     Total:146      MisBP:0   MisRate:0.00%    MPKI:0.00
PC:12e0c     Total:21248      MisBP:0   MisRate:0.00%    MPKI:0.00
PC:155ca     Total:12867      MisBP:0   MisRate:0.00%    MPKI:0.00
PC:12e0a     Total:21248      MisBP:0   MisRate:0.00%    MPKI:0.00
PC:293b8     Total:172      MisBP:0   MisRate:0.00%    MPKI:0.00
PC:152b0     Total:8      MisBP:0   MisRate:0.00%    MPKI:0.00
PC:155c8     Total:12867      MisBP:0   MisRate:0.00%    MPKI:0.00
PC:155a4     Total:12838      MisBP:0   MisRate:0.00%    MPKI:0.00
PC:12e06     Total:21224      MisBP:0   MisRate:0.00%    MPKI:0.00
PC:293b4     Total:344      MisBP:0   MisRate:0.00%    MPKI:0.00
PC:152ac     Total:8      MisBP:0   MisRate:0.00%    MPKI:0.00
PC:155c4     Total:12841      MisBP:0   MisRate:0.00%    MPKI:0.00
PC:296cc     Total:146      MisBP:0   MisRate:0.00%    MPKI:0.00
PC:293b0     Total:25      MisBP:0   MisRate:0.00%    MPKI:0.00
PC:155c0     Total:12841      MisBP:0   MisRate:0.00%    MPKI:0.00
PC:296c8     Total:146      MisBP:0   MisRate:0.00%    MPKI:0.00
PC:155be     Total:12844      MisBP:0   MisRate:0.00%    MPKI:0.00
PC:293ac     Total:25      MisBP:0   MisRate:0.00%    MPKI:0.00
PC:15264     Total:8      MisBP:0   MisRate:0.00%    MPKI:0.00
PC:15270     Total:8      MisBP:0   MisRate:0.00%    MPKI:0.00
PC:15588     Total:12820      MisBP:0   MisRate:0.00%    MPKI:0.00
PC:29690     Total:146      MisBP:0   MisRate:0.00%    MPKI:0.00
PC:29374     Total:20      MisBP:0   MisRate:0.00%    MPKI:0.00
PC:15584     Total:12820      MisBP:0   MisRate:0.00%    MPKI:0.00
PC:2968c     Total:146      MisBP:0   MisRate:0.00%    MPKI:0.00
PC:29370     Total:20      MisBP:0   MisRate:0.00%    MPKI:0.00
PC:15580     Total:12820      MisBP:0   MisRate:0.00%    MPKI:0.00
PC:29688     Total:146      MisBP:0   MisRate:0.00%    MPKI:0.00
PC:12dbe     Total:23      MisBP:0   MisRate:0.00%    MPKI:0.00
PC:2936c     Total:18      MisBP:0   MisRate:0.00%    MPKI:0.00
PC:29378     Total:20      MisBP:0   MisRate:0.00%    MPKI:0.00
PC:1557c     Total:12821      MisBP:0   MisRate:0.00%    MPKI:0.00
PC:29684     Total:146      MisBP:0   MisRate:0.00%    MPKI:0.00
PC:12dbc     Total:23      MisBP:0   MisRate:0.00%    MPKI:0.00
PC:1557a     Total:12821      MisBP:0   MisRate:0.00%    MPKI:0.00
PC:12dba     Total:20      MisBP:0   MisRate:0.00%    MPKI:0.00
PC:29368     Total:18      MisBP:0   MisRate:0.00%    MPKI:0.00
PC:15260     Total:7      MisBP:0   MisRate:0.00%    MPKI:0.00
PC:15578     Total:12821      MisBP:0   MisRate:0.00%    MPKI:0.00
PC:29680     Total:146      MisBP:0   MisRate:0.00%    MPKI:0.00
PC:12db8     Total:20      MisBP:0   MisRate:0.00%    MPKI:0.00
PC:29388     Total:18      MisBP:0   MisRate:0.00%    MPKI:0.00
PC:296ac     Total:146      MisBP:0   MisRate:0.00%    MPKI:0.00
PC:29390     Total:26      MisBP:0   MisRate:0.00%    MPKI:0.00
PC:15288     Total:330      MisBP:0   MisRate:0.00%    MPKI:0.00
PC:155a0     Total:12816      MisBP:0   MisRate:0.00%    MPKI:0.00
PC:296a8     Total:146      MisBP:0   MisRate:0.00%    MPKI:0.00
PC:2938c     Total:18      MisBP:0   MisRate:0.00%    MPKI:0.00
PC:15284     Total:159      MisBP:0   MisRate:0.00%    MPKI:0.00
PC:1559c     Total:12816      MisBP:0   MisRate:0.00%    MPKI:0.00
PC:296a4     Total:146      MisBP:0   MisRate:0.00%    MPKI:0.00
PC:1559a     Total:12816      MisBP:0   MisRate:0.00%    MPKI:0.00
PC:164f8     Total:13105      MisBP:0   MisRate:0.00%    MPKI:0.00
PC:15598     Total:12816      MisBP:0   MisRate:0.00%    MPKI:0.00
PC:296a0     Total:146      MisBP:0   MisRate:0.00%    MPKI:0.00
PC:15596     Total:12820      MisBP:0   MisRate:0.00%    MPKI:0.00
PC:29384     Total:18      MisBP:0   MisRate:0.00%    MPKI:0.00
PC:1527c     Total:8      MisBP:0   MisRate:0.00%    MPKI:0.00
PC:15594     Total:12820      MisBP:0   MisRate:0.00%    MPKI:0.00
PC:2969c     Total:146      MisBP:0   MisRate:0.00%    MPKI:0.00
PC:15592     Total:12820      MisBP:0   MisRate:0.00%    MPKI:0.00
PC:1558e     Total:12820      MisBP:0   MisRate:0.00%    MPKI:0.00
PC:1558a     Total:12820      MisBP:0   MisRate:0.00%    MPKI:0.00
PC:16454     Total:13168      MisBP:0   MisRate:0.00%    MPKI:0.00
PC:18c1e     Total:4616      MisBP:0   MisRate:0.00%    MPKI:0.00
PC:16460     Total:13147      MisBP:0   MisRate:0.00%    MPKI:0.00
PC:18c1c     Total:4617      MisBP:0   MisRate:0.00%    MPKI:0.00
PC:1645e     Total:13156      MisBP:0   MisRate:0.00%    MPKI:0.00
PC:18c1a     Total:4617      MisBP:0   MisRate:0.00%    MPKI:0.00
PC:1645c     Total:13158      MisBP:0   MisRate:0.00%    MPKI:0.00
PC:18c18     Total:53      MisBP:0   MisRate:0.00%    MPKI:0.00
PC:1645a     Total:13162      MisBP:0   MisRate:0.00%    MPKI:0.00
PC:18c14     Total:53      MisBP:0   MisRate:0.00%    MPKI:0.00
PC:16456     Total:13166      MisBP:0   MisRate:0.00%    MPKI:0.00
PC:18c12     Total:53      MisBP:0   MisRate:0.00%    MPKI:0.00
PC:16462     Total:13144      MisBP:0   MisRate:0.00%    MPKI:0.00
PC:18c10     Total:53      MisBP:0   MisRate:0.00%    MPKI:0.00
PC:16452     Total:13204      MisBP:0   MisRate:0.00%    MPKI:0.00
PC:18c0c     Total:54      MisBP:0   MisRate:0.00%    MPKI:0.00
PC:1644e     Total:13205      MisBP:0   MisRate:0.00%    MPKI:0.00
PC:18c0a     Total:54      MisBP:0   MisRate:0.00%    MPKI:0.00
PC:1644c     Total:13205      MisBP:0   MisRate:0.00%    MPKI:0.00
PC:18c08     Total:54      MisBP:0   MisRate:0.00%    MPKI:0.00
PC:1644a     Total:13206      MisBP:0   MisRate:0.00%    MPKI:0.00
PC:18c06     Total:54      MisBP:0   MisRate:0.00%    MPKI:0.00
PC:16448     Total:13208      MisBP:0   MisRate:0.00%    MPKI:0.00
PC:16472     Total:13117      MisBP:0   MisRate:0.00%    MPKI:0.00
PC:1647e     Total:13138      MisBP:0   MisRate:0.00%    MPKI:0.00
PC:18c3a     Total:4493      MisBP:0   MisRate:0.00%    MPKI:0.00
PC:1647c     Total:13131      MisBP:0   MisRate:0.00%    MPKI:0.00
PC:18c38     Total:4496      MisBP:0   MisRate:0.00%    MPKI:0.00
PC:1647a     Total:13134      MisBP:0   MisRate:0.00%    MPKI:0.00
PC:18c36     Total:4499      MisBP:0   MisRate:0.00%    MPKI:0.00
PC:16478     Total:13136      MisBP:0   MisRate:0.00%    MPKI:0.00
PC:16476     Total:13141      MisBP:0   MisRate:0.00%    MPKI:0.00
PC:18c32     Total:4512      MisBP:0   MisRate:0.00%    MPKI:0.00
PC:16474     Total:13117      MisBP:0   MisRate:0.00%    MPKI:0.00
PC:18c04     Total:54      MisBP:0   MisRate:0.00%    MPKI:0.00
PC:16470     Total:13127      MisBP:0   MisRate:0.00%    MPKI:0.00
PC:18c2c     Total:4595      MisBP:0   MisRate:0.00%    MPKI:0.00
PC:1646e     Total:13127      MisBP:0   MisRate:0.00%    MPKI:0.00
PC:1646c     Total:13130      MisBP:0   MisRate:0.00%    MPKI:0.00
PC:18c28     Total:4622      MisBP:0   MisRate:0.00%    MPKI:0.00
PC:1646a     Total:13130      MisBP:0   MisRate:0.00%    MPKI:0.00
PC:18c24     Total:4616      MisBP:0   MisRate:0.00%    MPKI:0.00
PC:16466     Total:13130      MisBP:0   MisRate:0.00%    MPKI:0.00
PC:16464     Total:13143      MisBP:0   MisRate:0.00%    MPKI:0.00
PC:18c20     Total:9232      MisBP:0   MisRate:0.00%    MPKI:0.00
PC:1dc06     Total:1      MisBP:0   MisRate:0.00%    MPKI:0.00
PC:1641e     Total:13246      MisBP:0   MisRate:0.00%    MPKI:0.00
PC:1641c     Total:13246      MisBP:0   MisRate:0.00%    MPKI:0.00
PC:18bd8     Total:14459      MisBP:0   MisRate:0.00%    MPKI:0.00
PC:1641a     Total:13203      MisBP:0   MisRate:0.00%    MPKI:0.00
PC:16416     Total:13233      MisBP:0   MisRate:0.00%    MPKI:0.00
PC:16414     Total:13233      MisBP:0   MisRate:0.00%    MPKI:0.00
PC:16410     Total:13233      MisBP:0   MisRate:0.00%    MPKI:0.00
PC:1640e     Total:13233      MisBP:0   MisRate:0.00%    MPKI:0.00
PC:18bc8     Total:5261      MisBP:0   MisRate:0.00%    MPKI:0.00
PC:1640a     Total:13236      MisBP:0   MisRate:0.00%    MPKI:0.00
PC:18bc4     Total:10554      MisBP:0   MisRate:0.00%    MPKI:0.00
PC:18bdc     Total:14386      MisBP:0   MisRate:0.00%    MPKI:0.00
PC:16406     Total:13236      MisBP:0   MisRate:0.00%    MPKI:0.00
PC:16404     Total:13236      MisBP:0   MisRate:0.00%    MPKI:0.00
PC:16400     Total:13236      MisBP:0   MisRate:0.00%    MPKI:0.00
PC:18bbc     Total:5543      MisBP:0   MisRate:0.00%    MPKI:0.00
PC:163fe     Total:13321      MisBP:0   MisRate:0.00%    MPKI:0.00
PC:18bb8     Total:5547      MisBP:0   MisRate:0.00%    MPKI:0.00
PC:1dbfa     Total:282      MisBP:0   MisRate:0.00%    MPKI:0.00
PC:163fa     Total:13300      MisBP:0   MisRate:0.00%    MPKI:0.00
PC:163f8     Total:13302      MisBP:0   MisRate:0.00%    MPKI:0.00
PC:18bb2     Total:5557      MisBP:0   MisRate:0.00%    MPKI:0.00
PC:16436     Total:13260      MisBP:0   MisRate:0.00%    MPKI:0.00
PC:16446     Total:13209      MisBP:0   MisRate:0.00%    MPKI:0.00
PC:16442     Total:13210      MisBP:0   MisRate:0.00%    MPKI:0.00
PC:18bfe     Total:54      MisBP:0   MisRate:0.00%    MPKI:0.00
PC:16440     Total:13211      MisBP:0   MisRate:0.00%    MPKI:0.00
PC:18bfc     Total:60      MisBP:0   MisRate:0.00%    MPKI:0.00
PC:1643e     Total:13266      MisBP:0   MisRate:0.00%    MPKI:0.00
PC:1643a     Total:13252      MisBP:0   MisRate:0.00%    MPKI:0.00
PC:18bf6     Total:4612      MisBP:0   MisRate:0.00%    MPKI:0.00
PC:16438     Total:13254      MisBP:0   MisRate:0.00%    MPKI:0.00
PC:18bf4     Total:4615      MisBP:0   MisRate:0.00%    MPKI:0.00
PC:18c3c     Total:4489      MisBP:0   MisRate:0.00%    MPKI:0.00
PC:16434     Total:13240      MisBP:0   MisRate:0.00%    MPKI:0.00
PC:16432     Total:13245      MisBP:0   MisRate:0.00%    MPKI:0.00
PC:16430     Total:13237      MisBP:0   MisRate:0.00%    MPKI:0.00
PC:1642e     Total:13237      MisBP:0   MisRate:0.00%    MPKI:0.00
PC:1642c     Total:13237      MisBP:0   MisRate:0.00%    MPKI:0.00
PC:1642a     Total:13239      MisBP:0   MisRate:0.00%    MPKI:0.00
PC:16426     Total:13239      MisBP:0   MisRate:0.00%    MPKI:0.00
PC:16424     Total:13240      MisBP:0   MisRate:0.00%    MPKI:0.00
PC:16422     Total:13240      MisBP:0   MisRate:0.00%    MPKI:0.00
PC:16420     Total:13246      MisBP:0   MisRate:0.00%    MPKI:0.00
PC:164dc     Total:13082      MisBP:0   MisRate:0.00%    MPKI:0.00
PC:18be0     Total:14338      MisBP:0   MisRate:0.00%    MPKI:0.00
PC:164e8     Total:13080      MisBP:0   MisRate:0.00%    MPKI:0.00
PC:164e4     Total:13079      MisBP:0   MisRate:0.00%    MPKI:0.00
PC:1dc1c     Total:18      MisBP:0   MisRate:0.00%    MPKI:0.00
PC:18bda     Total:14398      MisBP:0   MisRate:0.00%    MPKI:0.00
PC:18ca0     Total:3798      MisBP:0   MisRate:0.00%    MPKI:0.00
PC:164e2     Total:13082      MisBP:0   MisRate:0.00%    MPKI:0.00
PC:164de     Total:13082      MisBP:0   MisRate:0.00%    MPKI:0.00
PC:1dc16     Total:9      MisBP:0   MisRate:0.00%    MPKI:0.00
PC:18bd4     Total:4448      MisBP:0   MisRate:0.00%    MPKI:0.00
PC:18c9a     Total:7683      MisBP:0   MisRate:0.00%    MPKI:0.00
PC:1dc22     Total:9      MisBP:0   MisRate:0.00%    MPKI:0.00
PC:1dc14     Total:9      MisBP:0   MisRate:0.00%    MPKI:0.00
PC:18bd2     Total:4506      MisBP:0   MisRate:0.00%    MPKI:0.00
PC:164da     Total:13082      MisBP:0   MisRate:0.00%    MPKI:0.00
PC:1dc12     Total:18      MisBP:0   MisRate:0.00%    MPKI:0.00
PC:18c96     Total:3841      MisBP:0   MisRate:0.00%    MPKI:0.00
PC:164d8     Total:13082      MisBP:0   MisRate:0.00%    MPKI:0.00
PC:18c94     Total:3835      MisBP:0   MisRate:0.00%    MPKI:0.00
PC:164d6     Total:13082      MisBP:0   MisRate:0.00%    MPKI:0.00
PC:1dc0e     Total:9      MisBP:0   MisRate:0.00%    MPKI:0.00
PC:18bcc     Total:5261      MisBP:0   MisRate:0.00%    MPKI:0.00
PC:1dc2a     Total:7      MisBP:0   MisRate:0.00%    MPKI:0.00
PC:1dc30     Total:6      MisBP:0   MisRate:0.00%    MPKI:0.00
PC:18bee     Total:4621      MisBP:0   MisRate:0.00%    MPKI:0.00
PC:18cb4     Total:138      MisBP:0   MisRate:0.00%    MPKI:0.00
PC:164f6     Total:13093      MisBP:0   MisRate:0.00%    MPKI:0.00
PC:18cb2     Total:3755      MisBP:0   MisRate:0.00%    MPKI:0.00
PC:164f4     Total:13076      MisBP:0   MisRate:0.00%    MPKI:0.00
PC:1dc2c     Total:14      MisBP:0   MisRate:0.00%    MPKI:0.00
PC:18bea     Total:14315      MisBP:0   MisRate:0.00%    MPKI:0.00
PC:18cb0     Total:3755      MisBP:0   MisRate:0.00%    MPKI:0.00
PC:164f2     Total:13077      MisBP:0   MisRate:0.00%    MPKI:0.00
PC:164d4     Total:13082      MisBP:0   MisRate:0.00%    MPKI:0.00
PC:18cae     Total:3755      MisBP:0   MisRate:0.00%    MPKI:0.00
PC:164f0     Total:13077      MisBP:0   MisRate:0.00%    MPKI:0.00
PC:18cac     Total:3755      MisBP:0   MisRate:0.00%    MPKI:0.00
PC:164ee     Total:13078      MisBP:0   MisRate:0.00%    MPKI:0.00
PC:1dc26     Total:6      MisBP:0   MisRate:0.00%    MPKI:0.00
PC:164ec     Total:13079      MisBP:0   MisRate:0.00%    MPKI:0.00
PC:1dc24     Total:9      MisBP:0   MisRate:0.00%    MPKI:0.00
PC:18be2     Total:14324      MisBP:0   MisRate:0.00%    MPKI:0.00
PC:18ca8     Total:3756      MisBP:0   MisRate:0.00%    MPKI:0.00
PC:164ea     Total:13080      MisBP:0   MisRate:0.00%    MPKI:0.00
PC:18c4c     Total:211      MisBP:0   MisRate:0.00%    MPKI:0.00
PC:1649e     Total:13119      MisBP:0   MisRate:0.00%    MPKI:0.00
PC:18c58     Total:14200      MisBP:0   MisRate:0.00%    MPKI:0.00
PC:1649a     Total:13089      MisBP:0   MisRate:0.00%    MPKI:0.00
PC:16498     Total:13089      MisBP:0   MisRate:0.00%    MPKI:0.00
PC:18c54     Total:14200      MisBP:0   MisRate:0.00%    MPKI:0.00
PC:16496     Total:13087      MisBP:0   MisRate:0.00%    MPKI:0.00
PC:18c52     Total:14201      MisBP:0   MisRate:0.00%    MPKI:0.00
PC:16494     Total:13102      MisBP:0   MisRate:0.00%    MPKI:0.00
PC:18c50     Total:14204      MisBP:0   MisRate:0.00%    MPKI:0.00
PC:16492     Total:13123      MisBP:0   MisRate:0.00%    MPKI:0.00
PC:16490     Total:13126      MisBP:0   MisRate:0.00%    MPKI:0.00
PC:18c5c     Total:16776      MisBP:0   MisRate:0.00%    MPKI:0.00
PC:1648e     Total:13092      MisBP:0   MisRate:0.00%    MPKI:0.00
PC:1648c     Total:13092      MisBP:0   MisRate:0.00%    MPKI:0.00
PC:18c48     Total:211      MisBP:0   MisRate:0.00%    MPKI:0.00
PC:1648a     Total:13074      MisBP:0   MisRate:0.00%    MPKI:0.00
PC:18c44     Total:211      MisBP:0   MisRate:0.00%    MPKI:0.00
PC:16486     Total:13075      MisBP:0   MisRate:0.00%    MPKI:0.00
PC:18c40     Total:211      MisBP:0   MisRate:0.00%    MPKI:0.00
PC:16482     Total:13075      MisBP:0   MisRate:0.00%    MPKI:0.00
PC:18c3e     Total:219      MisBP:0   MisRate:0.00%    MPKI:0.00
PC:16480     Total:13075      MisBP:0   MisRate:0.00%    MPKI:0.00
PC:164b0     Total:13087      MisBP:0   MisRate:0.00%    MPKI:0.00
PC:1dc0c     Total:45      MisBP:0   MisRate:0.00%    MPKI:0.00
PC:18c90     Total:3837      MisBP:0   MisRate:0.00%    MPKI:0.00
PC:164d2     Total:13082      MisBP:0   MisRate:0.00%    MPKI:0.00
PC:18c8e     Total:3838      MisBP:0   MisRate:0.00%    MPKI:0.00
PC:164d0     Total:13112      MisBP:0   MisRate:0.00%    MPKI:0.00
PC:164ca     Total:13112      MisBP:0   MisRate:0.00%    MPKI:0.00
PC:18c82     Total:15243      MisBP:0   MisRate:0.00%    MPKI:0.00
PC:164c4     Total:13060      MisBP:0   MisRate:0.00%    MPKI:0.00
PC:18c7a     Total:16252      MisBP:0   MisRate:0.00%    MPKI:0.00
PC:164bc     Total:13087      MisBP:0   MisRate:0.00%    MPKI:0.00
PC:16106     Total:13057      MisBP:0   MisRate:0.00%    MPKI:0.00
PC:18c6c     Total:16341      MisBP:0   MisRate:0.00%    MPKI:0.00
PC:164ae     Total:13087      MisBP:0   MisRate:0.00%    MPKI:0.00
PC:164ac     Total:13087      MisBP:0   MisRate:0.00%    MPKI:0.00
PC:18c66     Total:16329      MisBP:0   MisRate:0.00%    MPKI:0.00
PC:164a8     Total:13091      MisBP:0   MisRate:0.00%    MPKI:0.00
PC:18c64     Total:16334      MisBP:0   MisRate:0.00%    MPKI:0.00
PC:164a6     Total:13120      MisBP:0   MisRate:0.00%    MPKI:0.00
PC:164a2     Total:13120      MisBP:0   MisRate:0.00%    MPKI:0.00
PC:18c5e     Total:16758      MisBP:0   MisRate:0.00%    MPKI:0.00
PC:164a0     Total:13120      MisBP:0   MisRate:0.00%    MPKI:0.00
PC:1225a     Total:36464      MisBP:0   MisRate:0.00%    MPKI:0.00
PC:292a8     Total:3      MisBP:0   MisRate:0.00%    MPKI:0.00
PC:12260     Total:36018      MisBP:0   MisRate:0.00%    MPKI:0.00
PC:190dc     Total:2      MisBP:0   MisRate:0.00%    MPKI:0.00
PC:1409a     Total:141      MisBP:0   MisRate:0.00%    MPKI:0.00
PC:1599e     Total:12809      MisBP:0   MisRate:0.00%    MPKI:0.00
PC:292a6     Total:3      MisBP:0   MisRate:0.00%    MPKI:0.00
PC:1519e     Total:1      MisBP:0   MisRate:0.00%    MPKI:0.00
PC:1015c     Total:25      MisBP:0   MisRate:0.00%    MPKI:0.00
PC:1225e     Total:36649      MisBP:0   MisRate:0.00%    MPKI:0.00
PC:292a2     Total:3      MisBP:0   MisRate:0.00%    MPKI:0.00
PC:1519a     Total:1      MisBP:0   MisRate:0.00%    MPKI:0.00
PC:295c0     Total:1977      MisBP:0   MisRate:0.00%    MPKI:0.00
PC:15998     Total:12809      MisBP:0   MisRate:0.00%    MPKI:0.00
PC:154b0     Total:9      MisBP:0   MisRate:0.00%    MPKI:0.00
PC:295b8     Total:1978      MisBP:0   MisRate:0.00%    MPKI:0.00
PC:292a0     Total:3      MisBP:0   MisRate:0.00%    MPKI:0.00
PC:15198     Total:1      MisBP:0   MisRate:0.00%    MPKI:0.00
PC:2929e     Total:3      MisBP:0   MisRate:0.00%    MPKI:0.00
PC:10154     Total:191      MisBP:0   MisRate:0.00%    MPKI:0.00
PC:12256     Total:37400      MisBP:0   MisRate:0.00%    MPKI:0.00
PC:15994     Total:12810      MisBP:0   MisRate:0.00%    MPKI:0.00
PC:12252     Total:37403      MisBP:0   MisRate:0.00%    MPKI:0.00
PC:159a4     Total:12809      MisBP:0   MisRate:0.00%    MPKI:0.00
PC:292b4     Total:2      MisBP:0   MisRate:0.00%    MPKI:0.00
PC:190e8     Total:3      MisBP:0   MisRate:0.00%    MPKI:0.00
PC:140a6     Total:141      MisBP:0   MisRate:0.00%    MPKI:0.00
PC:159aa     Total:12848      MisBP:0   MisRate:0.00%    MPKI:0.00
PC:14a28     Total:336747      MisBP:0   MisRate:0.00%    MPKI:0.00
PC:1226a     Total:78977      MisBP:0   MisRate:0.00%    MPKI:0.00
PC:159a8     Total:12848      MisBP:0   MisRate:0.00%    MPKI:0.00
PC:292ae     Total:2      MisBP:0   MisRate:0.00%    MPKI:0.00
PC:151a6     Total:1      MisBP:0   MisRate:0.00%    MPKI:0.00
PC:10164     Total:25      MisBP:0   MisRate:0.00%    MPKI:0.00
PC:29794     Total:34      MisBP:0   MisRate:0.00%    MPKI:0.00
PC:15990     Total:12810      MisBP:0   MisRate:0.00%    MPKI:0.00
PC:154bc     Total:42      MisBP:0   MisRate:0.00%    MPKI:0.00
PC:295c4     Total:1977      MisBP:0   MisRate:0.00%    MPKI:0.00
PC:292ac     Total:3      MisBP:0   MisRate:0.00%    MPKI:0.00
PC:154ba     Total:42      MisBP:0   MisRate:0.00%    MPKI:0.00
PC:292aa     Total:3      MisBP:0   MisRate:0.00%    MPKI:0.00
PC:151a2     Total:1      MisBP:0   MisRate:0.00%    MPKI:0.00
PC:10160     Total:25      MisBP:0   MisRate:0.00%    MPKI:0.00
PC:29790     Total:34      MisBP:0   MisRate:0.00%    MPKI:0.00
PC:159a0     Total:12809      MisBP:0   MisRate:0.00%    MPKI:0.00
PC:154b8     Total:42      MisBP:0   MisRate:0.00%    MPKI:0.00
PC:15976     Total:12814      MisBP:0   MisRate:0.00%    MPKI:0.00
PC:295a0     Total:1979      MisBP:0   MisRate:0.00%    MPKI:0.00
PC:29288     Total:4      MisBP:0   MisRate:0.00%    MPKI:0.00
PC:15180     Total:1      MisBP:0   MisRate:0.00%    MPKI:0.00
PC:1597e     Total:12810      MisBP:0   MisRate:0.00%    MPKI:0.00
PC:29284     Total:4      MisBP:0   MisRate:0.00%    MPKI:0.00
PC:1517c     Total:2      MisBP:0   MisRate:0.00%    MPKI:0.00
PC:1223c     Total:40641      MisBP:0   MisRate:0.00%    MPKI:0.00
PC:1597a     Total:12814      MisBP:0   MisRate:0.00%    MPKI:0.00
PC:29280     Total:4      MisBP:0   MisRate:0.00%    MPKI:0.00
PC:15178     Total:2      MisBP:0   MisRate:0.00%    MPKI:0.00
PC:12238     Total:40645      MisBP:0   MisRate:0.00%    MPKI:0.00
PC:15982     Total:12810      MisBP:0   MisRate:0.00%    MPKI:0.00
PC:11e58     Total:357      MisBP:0   MisRate:0.00%    MPKI:0.00
PC:11e54     Total:357      MisBP:0   MisRate:0.00%    MPKI:0.00
PC:11e52     Total:357      MisBP:0   MisRate:0.00%    MPKI:0.00
PC:11e50     Total:366      MisBP:0   MisRate:0.00%    MPKI:0.00
PC:11e4e     Total:366      MisBP:0   MisRate:0.00%    MPKI:0.00
PC:11e4c     Total:367      MisBP:0   MisRate:0.00%    MPKI:0.00
PC:11e4a     Total:367      MisBP:0   MisRate:0.00%    MPKI:0.00
PC:154e6     Total:48      MisBP:0   MisRate:0.00%    MPKI:0.00
PC:14a4c     Total:173952      MisBP:0   MisRate:0.00%    MPKI:0.00
PC:1228e     Total:75097      MisBP:0   MisRate:0.00%    MPKI:0.00
PC:29294     Total:3      MisBP:0   MisRate:0.00%    MPKI:0.00
PC:154a8     Total:9      MisBP:0   MisRate:0.00%    MPKI:0.00
PC:295b0     Total:1978      MisBP:0   MisRate:0.00%    MPKI:0.00
PC:29298     Total:3      MisBP:0   MisRate:0.00%    MPKI:0.00
PC:15190     Total:1      MisBP:0   MisRate:0.00%    MPKI:0.00
PC:1598e     Total:12810      MisBP:0   MisRate:0.00%    MPKI:0.00
PC:154a6     Total:9      MisBP:0   MisRate:0.00%    MPKI:0.00
PC:29296     Total:3      MisBP:0   MisRate:0.00%    MPKI:0.00
PC:1224e     Total:260878      MisBP:0   MisRate:0.00%    MPKI:0.00
PC:154a4     Total:9      MisBP:0   MisRate:0.00%    MPKI:0.00
PC:295ac     Total:1979      MisBP:0   MisRate:0.00%    MPKI:0.00
PC:295cc     Total:1977      MisBP:0   MisRate:0.00%    MPKI:0.00
PC:1518c     Total:1      MisBP:0   MisRate:0.00%    MPKI:0.00
PC:1224c     Total:262490      MisBP:0   MisRate:0.00%    MPKI:0.00
PC:1598a     Total:12810      MisBP:0   MisRate:0.00%    MPKI:0.00
PC:154a0     Total:9      MisBP:0   MisRate:0.00%    MPKI:0.00
PC:295a8     Total:1979      MisBP:0   MisRate:0.00%    MPKI:0.00
PC:29290     Total:4      MisBP:0   MisRate:0.00%    MPKI:0.00
PC:15188     Total:1      MisBP:0   MisRate:0.00%    MPKI:0.00
PC:1549c     Total:9      MisBP:0   MisRate:0.00%    MPKI:0.00
PC:295a4     Total:1979      MisBP:0   MisRate:0.00%    MPKI:0.00
PC:2928c     Total:4      MisBP:0   MisRate:0.00%    MPKI:0.00
PC:12534     Total:3      MisBP:0   MisRate:0.00%    MPKI:0.00
PC:14d8a     Total:6850      MisBP:0   MisRate:0.00%    MPKI:0.00
PC:125cc     Total:4      MisBP:0   MisRate:0.00%    MPKI:0.00
PC:14aa0     Total:12      MisBP:0   MisRate:0.00%    MPKI:0.00
PC:125c8     Total:4      MisBP:0   MisRate:0.00%    MPKI:0.00
PC:15d06     Total:13041      MisBP:0   MisRate:0.00%    MPKI:0.00
PC:14cf8     Total:7064      MisBP:0   MisRate:0.00%    MPKI:0.00
PC:15c78     Total:13120      MisBP:0   MisRate:0.00%    MPKI:0.00
PC:14cf6     Total:7064      MisBP:0   MisRate:0.00%    MPKI:0.00
PC:12538     Total:3      MisBP:0   MisRate:0.00%    MPKI:0.00
PC:15c76     Total:13121      MisBP:0   MisRate:0.00%    MPKI:0.00
PC:14cf2     Total:7065      MisBP:0   MisRate:0.00%    MPKI:0.00
PC:125ce     Total:4      MisBP:0   MisRate:0.00%    MPKI:0.00
PC:15c72     Total:13184      MisBP:0   MisRate:0.00%    MPKI:0.00
PC:14cf0     Total:7070      MisBP:0   MisRate:0.00%    MPKI:0.00
PC:12532     Total:3      MisBP:0   MisRate:0.00%    MPKI:0.00
PC:14cee     Total:7071      MisBP:0   MisRate:0.00%    MPKI:0.00
PC:12530     Total:3      MisBP:0   MisRate:0.00%    MPKI:0.00
PC:15c6e     Total:13184      MisBP:0   MisRate:0.00%    MPKI:0.00
PC:1252e     Total:3      MisBP:0   MisRate:0.00%    MPKI:0.00
PC:15c6c     Total:13184      MisBP:0   MisRate:0.00%    MPKI:0.00
PC:154e4     Total:48      MisBP:0   MisRate:0.00%    MPKI:0.00
PC:295ec     Total:1975      MisBP:0   MisRate:0.00%    MPKI:0.00
PC:14d98     Total:6954      MisBP:0   MisRate:0.00%    MPKI:0.00
PC:12638     Total:1      MisBP:0   MisRate:0.00%    MPKI:0.00
PC:14db6     Total:7121      MisBP:0   MisRate:0.00%    MPKI:0.00
PC:125f8     Total:4      MisBP:0   MisRate:0.00%    MPKI:0.00
PC:15d36     Total:13021      MisBP:0   MisRate:0.00%    MPKI:0.00
PC:125ec     Total:1306576      MisBP:0   MisRate:0.00%    MPKI:0.00
PC:14da6     Total:7139      MisBP:0   MisRate:0.00%    MPKI:0.00
PC:125e8     Total:3      MisBP:0   MisRate:0.00%    MPKI:0.00
PC:125e4     Total:4      MisBP:0   MisRate:0.00%    MPKI:0.00
PC:14d9e     Total:6953      MisBP:0   MisRate:0.00%    MPKI:0.00
PC:125e0     Total:4      MisBP:0   MisRate:0.00%    MPKI:0.00
PC:292d4     Total:2      MisBP:0   MisRate:0.00%    MPKI:0.00
PC:125da     Total:4      MisBP:0   MisRate:0.00%    MPKI:0.00
PC:125d6     Total:4      MisBP:0   MisRate:0.00%    MPKI:0.00
PC:14aaa     Total:2      MisBP:0   MisRate:0.00%    MPKI:0.00
PC:14d92     Total:6843      MisBP:0   MisRate:0.00%    MPKI:0.00
PC:125d4     Total:4      MisBP:0   MisRate:0.00%    MPKI:0.00
PC:14d90     Total:6843      MisBP:0   MisRate:0.00%    MPKI:0.00
PC:125d2     Total:4      MisBP:0   MisRate:0.00%    MPKI:0.00
PC:125d0     Total:4      MisBP:0   MisRate:0.00%    MPKI:0.00
PC:15d0e     Total:13041      MisBP:0   MisRate:0.00%    MPKI:0.00
PC:14d8c     Total:6844      MisBP:0   MisRate:0.00%    MPKI:0.00
PC:10174     Total:24      MisBP:0   MisRate:0.00%    MPKI:0.00
PC:10178     Total:24      MisBP:0   MisRate:0.00%    MPKI:0.00
PC:151ba     Total:1      MisBP:0   MisRate:0.00%    MPKI:0.00
PC:159b8     Total:12866      MisBP:0   MisRate:0.00%    MPKI:0.00
PC:154d0     Total:5      MisBP:0   MisRate:0.00%    MPKI:0.00
PC:295d8     Total:1976      MisBP:0   MisRate:0.00%    MPKI:0.00
PC:292c0     Total:2      MisBP:0   MisRate:0.00%    MPKI:0.00
PC:14a36     Total:185702      MisBP:0   MisRate:0.00%    MPKI:0.00
PC:12278     Total:78310      MisBP:0   MisRate:0.00%    MPKI:0.00
PC:159b6     Total:12866      MisBP:0   MisRate:0.00%    MPKI:0.00
PC:154ce     Total:5      MisBP:0   MisRate:0.00%    MPKI:0.00
PC:292be     Total:2      MisBP:0   MisRate:0.00%    MPKI:0.00
PC:292c2     Total:2      MisBP:0   MisRate:0.00%    MPKI:0.00
PC:151b6     Total:1      MisBP:0   MisRate:0.00%    MPKI:0.00
PC:12276     Total:78348      MisBP:0   MisRate:0.00%    MPKI:0.00
PC:159b4     Total:12847      MisBP:0   MisRate:0.00%    MPKI:0.00
PC:154ca     Total:35      MisBP:0   MisRate:0.00%    MPKI:0.00
PC:159b0     Total:12847      MisBP:0   MisRate:0.00%    MPKI:0.00
PC:292b8     Total:2      MisBP:0   MisRate:0.00%    MPKI:0.00
PC:154c6     Total:35      MisBP:0   MisRate:0.00%    MPKI:0.00
PC:1226e     Total:157548      MisBP:0   MisRate:0.00%    MPKI:0.00
PC:159ac     Total:12847      MisBP:0   MisRate:0.00%    MPKI:0.00
PC:154c4     Total:35      MisBP:0   MisRate:0.00%    MPKI:0.00
PC:159c0     Total:12859      MisBP:0   MisRate:0.00%    MPKI:0.00
PC:151cc     Total:1      MisBP:0   MisRate:0.00%    MPKI:0.00
PC:159ca     Total:12878      MisBP:0   MisRate:0.00%    MPKI:0.00
PC:154e0     Total:15      MisBP:0   MisRate:0.00%    MPKI:0.00
PC:295e8     Total:1975      MisBP:0   MisRate:0.00%    MPKI:0.00
PC:292d0     Total:2      MisBP:0   MisRate:0.00%    MPKI:0.00
PC:151c8     Total:1      MisBP:0   MisRate:0.00%    MPKI:0.00
PC:14a46     Total:174020      MisBP:0   MisRate:0.00%    MPKI:0.00
PC:12288     Total:75127      MisBP:0   MisRate:0.00%    MPKI:0.00
PC:159c6     Total:12859      MisBP:0   MisRate:0.00%    MPKI:0.00
PC:154da     Total:15      MisBP:0   MisRate:0.00%    MPKI:0.00
PC:159cc     Total:12878      MisBP:0   MisRate:0.00%    MPKI:0.00
PC:154d6     Total:15      MisBP:0   MisRate:0.00%    MPKI:0.00
PC:292c6     Total:2      MisBP:0   MisRate:0.00%    MPKI:0.00
PC:1017c     Total:24      MisBP:0   MisRate:0.00%    MPKI:0.00
PC:151be     Total:1      MisBP:0   MisRate:0.00%    MPKI:0.00
PC:154d4     Total:5      MisBP:0   MisRate:0.00%    MPKI:0.00
PC:295dc     Total:1976      MisBP:0   MisRate:0.00%    MPKI:0.00
PC:292c4     Total:2      MisBP:0   MisRate:0.00%    MPKI:0.00
PC:14a3a     Total:185658      MisBP:0   MisRate:0.00%    MPKI:0.00
PC:159ba     Total:12866      MisBP:0   MisRate:0.00%    MPKI:0.00
PC:154d2     Total:5      MisBP:0   MisRate:0.00%    MPKI:0.00
PC:121d0     Total:470      MisBP:0   MisRate:0.00%    MPKI:0.00
PC:121e4     Total:41      MisBP:0   MisRate:0.00%    MPKI:0.00
PC:121e2     Total:41      MisBP:0   MisRate:0.00%    MPKI:0.00
PC:1905e     Total:2      MisBP:0   MisRate:0.00%    MPKI:0.00
PC:121e0     Total:41      MisBP:0   MisRate:0.00%    MPKI:0.00
PC:1689e     Total:3      MisBP:0   MisRate:0.00%    MPKI:0.00
PC:1905c     Total:2      MisBP:0   MisRate:0.00%    MPKI:0.00
PC:19058     Total:2      MisBP:0   MisRate:0.00%    MPKI:0.00
PC:121da     Total:469      MisBP:0   MisRate:0.00%    MPKI:0.00
PC:121d8     Total:469      MisBP:0   MisRate:0.00%    MPKI:0.00
PC:19054     Total:2      MisBP:0   MisRate:0.00%    MPKI:0.00
PC:121d4     Total:470      MisBP:0   MisRate:0.00%    MPKI:0.00
PC:19062     Total:2      MisBP:0   MisRate:0.00%    MPKI:0.00
PC:140d0     Total:171      MisBP:0   MisRate:0.00%    MPKI:0.00
PC:19112     Total:3      MisBP:0   MisRate:0.00%    MPKI:0.00
PC:11b2e     Total:12883      MisBP:0   MisRate:0.00%    MPKI:0.00
PC:1904c     Total:2      MisBP:0   MisRate:0.00%    MPKI:0.00
PC:121ce     Total:470      MisBP:0   MisRate:0.00%    MPKI:0.00
PC:121ca     Total:470      MisBP:0   MisRate:0.00%    MPKI:0.00
PC:121c8     Total:470      MisBP:0   MisRate:0.00%    MPKI:0.00
PC:140c8     Total:164      MisBP:0   MisRate:0.00%    MPKI:0.00
PC:16886     Total:15      MisBP:0   MisRate:0.00%    MPKI:0.00
PC:19044     Total:2      MisBP:0   MisRate:0.00%    MPKI:0.00
PC:121f2     Total:211      MisBP:0   MisRate:0.00%    MPKI:0.00
PC:12202     Total:477119      MisBP:0   MisRate:0.00%    MPKI:0.00
PC:121fe     Total:954238      MisBP:0   MisRate:0.00%    MPKI:0.00
PC:121fa     Total:210      MisBP:0   MisRate:0.00%    MPKI:0.00
PC:121f8     Total:211      MisBP:0   MisRate:0.00%    MPKI:0.00
PC:29240     Total:180      MisBP:0   MisRate:0.00%    MPKI:0.00
PC:168b6     Total:2      MisBP:0   MisRate:0.00%    MPKI:0.00
PC:19074     Total:1      MisBP:0   MisRate:0.00%    MPKI:0.00
PC:121f6     Total:211      MisBP:0   MisRate:0.00%    MPKI:0.00
PC:19072     Total:1      MisBP:0   MisRate:0.00%    MPKI:0.00
PC:121f4     Total:211      MisBP:0   MisRate:0.00%    MPKI:0.00
PC:121c4     Total:470      MisBP:0   MisRate:0.00%    MPKI:0.00
PC:1906e     Total:2      MisBP:0   MisRate:0.00%    MPKI:0.00
PC:168ae     Total:2      MisBP:0   MisRate:0.00%    MPKI:0.00
PC:1906c     Total:2      MisBP:0   MisRate:0.00%    MPKI:0.00
PC:121ee     Total:433      MisBP:0   MisRate:0.00%    MPKI:0.00
PC:121ec     Total:41      MisBP:0   MisRate:0.00%    MPKI:0.00
PC:168aa     Total:2      MisBP:0   MisRate:0.00%    MPKI:0.00
PC:19068     Total:2      MisBP:0   MisRate:0.00%    MPKI:0.00
PC:121ea     Total:41      MisBP:0   MisRate:0.00%    MPKI:0.00
PC:121e6     Total:41      MisBP:0   MisRate:0.00%    MPKI:0.00
PC:168a4     Total:3      MisBP:0   MisRate:0.00%    MPKI:0.00
PC:15d96     Total:13054      MisBP:0   MisRate:0.00%    MPKI:0.00
PC:2926e     Total:7      MisBP:0   MisRate:0.00%    MPKI:0.00
PC:15166     Total:2      MisBP:0   MisRate:0.00%    MPKI:0.00
PC:15db2     Total:13048      MisBP:0   MisRate:0.00%    MPKI:0.00
PC:15db0     Total:13048      MisBP:0   MisRate:0.00%    MPKI:0.00
PC:15daa     Total:13068      MisBP:0   MisRate:0.00%    MPKI:0.00
PC:15da8     Total:13036      MisBP:0   MisRate:0.00%    MPKI:0.00
PC:15da6     Total:13036      MisBP:0   MisRate:0.00%    MPKI:0.00
PC:15da0     Total:13019      MisBP:0   MisRate:0.00%    MPKI:0.00
PC:36244     Total:38      MisBP:0   MisRate:0.00%    MPKI:0.00
PC:15d9c     Total:13019      MisBP:0   MisRate:0.00%    MPKI:0.00
PC:15d98     Total:13019      MisBP:0   MisRate:0.00%    MPKI:0.00
PC:1547e     Total:12824      MisBP:0   MisRate:0.00%    MPKI:0.00
PC:2924c     Total:14      MisBP:0   MisRate:0.00%    MPKI:0.00
PC:15144     Total:2      MisBP:0   MisRate:0.00%    MPKI:0.00
PC:36238     Total:46      MisBP:0   MisRate:0.00%    MPKI:0.00
PC:1907c     Total:1      MisBP:0   MisRate:0.00%    MPKI:0.00
PC:15e9e     Total:13034      MisBP:0   MisRate:0.00%    MPKI:0.00
PC:15d8e     Total:13035      MisBP:0   MisRate:0.00%    MPKI:0.00
PC:15e9c     Total:13033      MisBP:0   MisRate:0.00%    MPKI:0.00
PC:29244     Total:30      MisBP:0   MisRate:0.00%    MPKI:0.00
PC:168ba     Total:2      MisBP:0   MisRate:0.00%    MPKI:0.00
PC:19078     Total:1      MisBP:0   MisRate:0.00%    MPKI:0.00
PC:151dc     Total:12      MisBP:0   MisRate:0.00%    MPKI:0.00
PC:121c2     Total:481      MisBP:0   MisRate:0.00%    MPKI:0.00
PC:140c2     Total:163      MisBP:0   MisRate:0.00%    MPKI:0.00
PC:19104     Total:3      MisBP:0   MisRate:0.00%    MPKI:0.00
PC:1903e     Total:2      MisBP:0   MisRate:0.00%    MPKI:0.00
PC:3622e     Total:46      MisBP:0   MisRate:0.00%    MPKI:0.00
PC:15e96     Total:13033      MisBP:0   MisRate:0.00%    MPKI:0.00
PC:11e56     Total:357      MisBP:0   MisRate:0.00%    MPKI:0.00
PC:154f4     Total:34      MisBP:0   MisRate:0.00%    MPKI:0.00
PC:295fc     Total:1975      MisBP:0   MisRate:0.00%    MPKI:0.00
PC:292e4     Total:45      MisBP:0   MisRate:0.00%    MPKI:0.00
PC:15944     Total:12815      MisBP:0   MisRate:0.00%    MPKI:0.00
PC:159da     Total:12877      MisBP:0   MisRate:0.00%    MPKI:0.00
PC:1548c     Total:12824      MisBP:0   MisRate:0.00%    MPKI:0.00
PC:29594     Total:1979      MisBP:0   MisRate:0.00%    MPKI:0.00
PC:2927c     Total:6      MisBP:0   MisRate:0.00%    MPKI:0.00
PC:15174     Total:2      MisBP:0   MisRate:0.00%    MPKI:0.00
PC:12234     Total:40646      MisBP:0   MisRate:0.00%    MPKI:0.00
PC:15972     Total:12814      MisBP:0   MisRate:0.00%    MPKI:0.00
PC:15482     Total:25648      MisBP:0   MisRate:0.00%    MPKI:0.00
PC:29272     Total:7      MisBP:0   MisRate:0.00%    MPKI:0.00
PC:1516a     Total:2      MisBP:0   MisRate:0.00%    MPKI:0.00
PC:1226c     Total:79266      MisBP:0   MisRate:0.00%    MPKI:0.00
PC:1227a     Total:77461      MisBP:0   MisRate:0.00%    MPKI:0.00
PC:14a38     Total:185679      MisBP:0   MisRate:0.00%    MPKI:0.00
PC:15ca2     Total:13014      MisBP:0   MisRate:0.00%    MPKI:0.00
PC:12560     Total:1      MisBP:0   MisRate:0.00%    MPKI:0.00
PC:15c9e     Total:13014      MisBP:0   MisRate:0.00%    MPKI:0.00
PC:14d1a     Total:6915      MisBP:0   MisRate:0.00%    MPKI:0.00
PC:1255c     Total:1      MisBP:0   MisRate:0.00%    MPKI:0.00
PC:12272     Total:78439      MisBP:0   MisRate:0.00%    MPKI:0.00
PC:14a30     Total:185724      MisBP:0   MisRate:0.00%    MPKI:0.00
PC:14d14     Total:6871      MisBP:0   MisRate:0.00%    MPKI:0.00
PC:12556     Total:1      MisBP:0   MisRate:0.00%    MPKI:0.00
PC:12564     Total:1      MisBP:0   MisRate:0.00%    MPKI:0.00
PC:14a2a     Total:336707      MisBP:0   MisRate:0.00%    MPKI:0.00
PC:14d0e     Total:6873      MisBP:0   MisRate:0.00%    MPKI:0.00
PC:12550     Total:1      MisBP:0   MisRate:0.00%    MPKI:0.00
PC:15c8e     Total:13039      MisBP:0   MisRate:0.00%    MPKI:0.00
PC:14d0c     Total:6877      MisBP:0   MisRate:0.00%    MPKI:0.00
PC:1254e     Total:1      MisBP:0   MisRate:0.00%    MPKI:0.00
PC:12264     Total:35972      MisBP:0   MisRate:0.00%    MPKI:0.00
PC:14a22     Total:336821      MisBP:0   MisRate:0.00%    MPKI:0.00
PC:15c8c     Total:13039      MisBP:0   MisRate:0.00%    MPKI:0.00
PC:1254a     Total:1      MisBP:0   MisRate:0.00%    MPKI:0.00
PC:10184     Total:76      MisBP:0   MisRate:0.00%    MPKI:0.00
PC:11e48     Total:368      MisBP:0   MisRate:0.00%    MPKI:0.00
PC:154e2     Total:48      MisBP:0   MisRate:0.00%    MPKI:0.00
PC:292d2     Total:2      MisBP:0   MisRate:0.00%    MPKI:0.00
PC:151ca     Total:1      MisBP:0   MisRate:0.00%    MPKI:0.00
PC:10188     Total:19      MisBP:0   MisRate:0.00%    MPKI:0.00
PC:297b8     Total:68      MisBP:0   MisRate:0.00%    MPKI:0.00
PC:159c8     Total:12878      MisBP:0   MisRate:0.00%    MPKI:0.00
PC:11e44     Total:736      MisBP:0   MisRate:0.00%    MPKI:0.00
PC:154de     Total:15      MisBP:0   MisRate:0.00%    MPKI:0.00
PC:292ce     Total:2      MisBP:0   MisRate:0.00%    MPKI:0.00
PC:15c88     Total:13039      MisBP:0   MisRate:0.00%    MPKI:0.00
PC:297b4     Total:34      MisBP:0   MisRate:0.00%    MPKI:0.00
PC:159c4     Total:12859      MisBP:0   MisRate:0.00%    MPKI:0.00
PC:11e40     Total:368      MisBP:0   MisRate:0.00%    MPKI:0.00
PC:292cc     Total:2      MisBP:0   MisRate:0.00%    MPKI:0.00
PC:151c4     Total:1      MisBP:0   MisRate:0.00%    MPKI:0.00
PC:12284     Total:74990      MisBP:0   MisRate:0.00%    MPKI:0.00
PC:11e3e     Total:381      MisBP:0   MisRate:0.00%    MPKI:0.00
PC:14d28     Total:7048      MisBP:0   MisRate:0.00%    MPKI:0.00
PC:1256a     Total:1      MisBP:0   MisRate:0.00%    MPKI:0.00
PC:14d22     Total:6915      MisBP:0   MisRate:0.00%    MPKI:0.00
PC:12214     Total:477069      MisBP:0   MisRate:0.00%    MPKI:0.00
PC:1596a     Total:12815      MisBP:0   MisRate:0.00%    MPKI:0.00
PC:12228     Total:26      MisBP:0   MisRate:0.00%    MPKI:0.00
PC:15966     Total:12815      MisBP:0   MisRate:0.00%    MPKI:0.00
PC:12220     Total:370      MisBP:0   MisRate:0.00%    MPKI:0.00
PC:1221e     Total:370      MisBP:0   MisRate:0.00%    MPKI:0.00
PC:29264     Total:7      MisBP:0   MisRate:0.00%    MPKI:0.00
PC:1515c     Total:2      MisBP:0   MisRate:0.00%    MPKI:0.00
PC:1221a     Total:477065      MisBP:0   MisRate:0.00%    MPKI:0.00
PC:15958     Total:12815      MisBP:0   MisRate:0.00%    MPKI:0.00
PC:12216     Total:477067      MisBP:0   MisRate:0.00%    MPKI:0.00
PC:15954     Total:12815      MisBP:0   MisRate:0.00%    MPKI:0.00
PC:1516c     Total:2      MisBP:0   MisRate:0.00%    MPKI:0.00
PC:12210     Total:477072      MisBP:0   MisRate:0.00%    MPKI:0.00
PC:1220e     Total:477109      MisBP:0   MisRate:0.00%    MPKI:0.00
PC:29256     Total:9      MisBP:0   MisRate:0.00%    MPKI:0.00
PC:1514e     Total:2      MisBP:0   MisRate:0.00%    MPKI:0.00
PC:1594c     Total:12815      MisBP:0   MisRate:0.00%    MPKI:0.00
PC:1220c     Total:477111      MisBP:0   MisRate:0.00%    MPKI:0.00
PC:1220a     Total:477114      MisBP:0   MisRate:0.00%    MPKI:0.00
PC:15948     Total:12815      MisBP:0   MisRate:0.00%    MPKI:0.00
PC:12208     Total:477119      MisBP:0   MisRate:0.00%    MPKI:0.00
PC:12206     Total:477119      MisBP:0   MisRate:0.00%    MPKI:0.00
PC:15c7e     Total:13118      MisBP:0   MisRate:0.00%    MPKI:0.00
PC:14d06     Total:6843      MisBP:0   MisRate:0.00%    MPKI:0.00
PC:12548     Total:1      MisBP:0   MisRate:0.00%    MPKI:0.00
PC:15c86     Total:13039      MisBP:0   MisRate:0.00%    MPKI:0.00
PC:12544     Total:1      MisBP:0   MisRate:0.00%    MPKI:0.00
PC:15c82     Total:13062      MisBP:0   MisRate:0.00%    MPKI:0.00
PC:14d00     Total:6845      MisBP:0   MisRate:0.00%    MPKI:0.00
PC:12542     Total:1      MisBP:0   MisRate:0.00%    MPKI:0.00
PC:15c80     Total:13062      MisBP:0   MisRate:0.00%    MPKI:0.00
PC:14cfe     Total:7071      MisBP:0   MisRate:0.00%    MPKI:0.00
PC:12540     Total:428      MisBP:0   MisRate:0.00%    MPKI:0.00
PC:14df6     Total:7150      MisBP:0   MisRate:0.00%    MPKI:0.00
PC:14cfc     Total:7076      MisBP:0   MisRate:0.00%    MPKI:0.00
PC:1253e     Total:436      MisBP:0   MisRate:0.00%    MPKI:0.00
PC:15c7c     Total:13120      MisBP:0   MisRate:0.00%    MPKI:0.00
PC:12230     Total:6      MisBP:0   MisRate:0.00%    MPKI:0.00
PC:15488     Total:12824      MisBP:0   MisRate:0.00%    MPKI:0.00
PC:29590     Total:1979      MisBP:0   MisRate:0.00%    MPKI:0.00
PC:29278     Total:6      MisBP:0   MisRate:0.00%    MPKI:0.00
PC:15170     Total:2      MisBP:0   MisRate:0.00%    MPKI:0.00
PC:1222c     Total:26      MisBP:0   MisRate:0.00%    MPKI:0.00
PC:29274     Total:14      MisBP:0   MisRate:0.00%    MPKI:0.00
PC:16000     Total:13177      MisBP:0   MisRate:0.00%    MPKI:0.00
PC:16020     Total:13168      MisBP:0   MisRate:0.00%    MPKI:0.00
PC:1601e     Total:13168      MisBP:0   MisRate:0.00%    MPKI:0.00
PC:1601c     Total:13168      MisBP:0   MisRate:0.00%    MPKI:0.00
PC:1601a     Total:13168      MisBP:0   MisRate:0.00%    MPKI:0.00
PC:16018     Total:13169      MisBP:0   MisRate:0.00%    MPKI:0.00
PC:16014     Total:13169      MisBP:0   MisRate:0.00%    MPKI:0.00
PC:16010     Total:13169      MisBP:0   MisRate:0.00%    MPKI:0.00
PC:1600e     Total:13171      MisBP:0   MisRate:0.00%    MPKI:0.00
PC:1600a     Total:13172      MisBP:0   MisRate:0.00%    MPKI:0.00
PC:16006     Total:13172      MisBP:0   MisRate:0.00%    MPKI:0.00
PC:16002     Total:13177      MisBP:0   MisRate:0.00%    MPKI:0.00
PC:16024     Total:13164      MisBP:0   MisRate:0.00%    MPKI:0.00
PC:15ffe     Total:13199      MisBP:0   MisRate:0.00%    MPKI:0.00
PC:15ffc     Total:13199      MisBP:0   MisRate:0.00%    MPKI:0.00
PC:10fba     Total:580      MisBP:0   MisRate:0.00%    MPKI:0.00
PC:15ffa     Total:13199      MisBP:0   MisRate:0.00%    MPKI:0.00
PC:10fb8     Total:147      MisBP:0   MisRate:0.00%    MPKI:0.00
PC:15ff8     Total:13202      MisBP:0   MisRate:0.00%    MPKI:0.00
PC:10fb6     Total:147      MisBP:0   MisRate:0.00%    MPKI:0.00
PC:15ff6     Total:13185      MisBP:0   MisRate:0.00%    MPKI:0.00
PC:10fb4     Total:147      MisBP:0   MisRate:0.00%    MPKI:0.00
PC:15ff4     Total:13186      MisBP:0   MisRate:0.00%    MPKI:0.00
PC:1603c     Total:13173      MisBP:0   MisRate:0.00%    MPKI:0.00
PC:16052     Total:13096      MisBP:0   MisRate:0.00%    MPKI:0.00
PC:11010     Total:715      MisBP:0   MisRate:0.00%    MPKI:0.00
PC:1604e     Total:13122      MisBP:0   MisRate:0.00%    MPKI:0.00
PC:1604c     Total:13126      MisBP:0   MisRate:0.00%    MPKI:0.00
PC:1604a     Total:13126      MisBP:0   MisRate:0.00%    MPKI:0.00
PC:16048     Total:13126      MisBP:0   MisRate:0.00%    MPKI:0.00
PC:16046     Total:13129      MisBP:0   MisRate:0.00%    MPKI:0.00
PC:16044     Total:13113      MisBP:0   MisRate:0.00%    MPKI:0.00
PC:16042     Total:13113      MisBP:0   MisRate:0.00%    MPKI:0.00
PC:16040     Total:13118      MisBP:0   MisRate:0.00%    MPKI:0.00
PC:1603e     Total:13145      MisBP:0   MisRate:0.00%    MPKI:0.00
PC:10fb2     Total:147      MisBP:0   MisRate:0.00%    MPKI:0.00
PC:1603a     Total:13173      MisBP:0   MisRate:0.00%    MPKI:0.00
PC:16038     Total:13173      MisBP:0   MisRate:0.00%    MPKI:0.00
PC:16036     Total:13174      MisBP:0   MisRate:0.00%    MPKI:0.00
PC:16032     Total:13176      MisBP:0   MisRate:0.00%    MPKI:0.00
PC:16030     Total:13176      MisBP:0   MisRate:0.00%    MPKI:0.00
PC:1602e     Total:13176      MisBP:0   MisRate:0.00%    MPKI:0.00
PC:1602c     Total:13176      MisBP:0   MisRate:0.00%    MPKI:0.00
PC:1602a     Total:13203      MisBP:0   MisRate:0.00%    MPKI:0.00
PC:16028     Total:13165      MisBP:0   MisRate:0.00%    MPKI:0.00
PC:16026     Total:13165      MisBP:0   MisRate:0.00%    MPKI:0.00
PC:15fb2     Total:13037      MisBP:0   MisRate:0.00%    MPKI:0.00
PC:15fc4     Total:13032      MisBP:0   MisRate:0.00%    MPKI:0.00
PC:10f82     Total:169      MisBP:0   MisRate:0.00%    MPKI:0.00
PC:11046     Total:141      MisBP:0   MisRate:0.00%    MPKI:0.00
PC:15fbe     Total:12994      MisBP:0   MisRate:0.00%    MPKI:0.00
PC:10f7c     Total:170      MisBP:0   MisRate:0.00%    MPKI:0.00
PC:15fba     Total:13056      MisBP:0   MisRate:0.00%    MPKI:0.00
PC:15fb8     Total:13056      MisBP:0   MisRate:0.00%    MPKI:0.00
PC:10f76     Total:170      MisBP:0   MisRate:0.00%    MPKI:0.00
PC:15fb6     Total:13056      MisBP:0   MisRate:0.00%    MPKI:0.00
PC:15fb4     Total:13037      MisBP:0   MisRate:0.00%    MPKI:0.00
PC:10f72     Total:170      MisBP:0   MisRate:0.00%    MPKI:0.00
PC:10f84     Total:169      MisBP:0   MisRate:0.00%    MPKI:0.00
PC:10f70     Total:850      MisBP:0   MisRate:0.00%    MPKI:0.00
PC:15fb0     Total:13037      MisBP:0   MisRate:0.00%    MPKI:0.00
PC:15fae     Total:13041      MisBP:0   MisRate:0.00%    MPKI:0.00
PC:15fac     Total:13044      MisBP:0   MisRate:0.00%    MPKI:0.00
PC:15faa     Total:13064      MisBP:0   MisRate:0.00%    MPKI:0.00
PC:15fa6     Total:13064      MisBP:0   MisRate:0.00%    MPKI:0.00
PC:15fa4     Total:13064      MisBP:0   MisRate:0.00%    MPKI:0.00
PC:15fa2     Total:13064      MisBP:0   MisRate:0.00%    MPKI:0.00
PC:15fa0     Total:13064      MisBP:0   MisRate:0.00%    MPKI:0.00
PC:15f9c     Total:13064      MisBP:0   MisRate:0.00%    MPKI:0.00
PC:15fda     Total:13102      MisBP:0   MisRate:0.00%    MPKI:0.00
PC:15ff0     Total:13113      MisBP:0   MisRate:0.00%    MPKI:0.00
PC:10fae     Total:147      MisBP:0   MisRate:0.00%    MPKI:0.00
PC:15fee     Total:13113      MisBP:0   MisRate:0.00%    MPKI:0.00
PC:10fac     Total:147      MisBP:0   MisRate:0.00%    MPKI:0.00
PC:15fec     Total:13095      MisBP:0   MisRate:0.00%    MPKI:0.00
PC:10faa     Total:147      MisBP:0   MisRate:0.00%    MPKI:0.00
PC:15fe8     Total:13095      MisBP:0   MisRate:0.00%    MPKI:0.00
PC:15fe2     Total:13097      MisBP:0   MisRate:0.00%    MPKI:0.00
PC:10fa0     Total:1      MisBP:0   MisRate:0.00%    MPKI:0.00
PC:15fde     Total:13102      MisBP:0   MisRate:0.00%    MPKI:0.00
PC:16056     Total:13096      MisBP:0   MisRate:0.00%    MPKI:0.00
PC:10f98     Total:149      MisBP:0   MisRate:0.00%    MPKI:0.00
PC:15fd8     Total:13064      MisBP:0   MisRate:0.00%    MPKI:0.00
PC:15fd6     Total:13064      MisBP:0   MisRate:0.00%    MPKI:0.00
PC:10f94     Total:169      MisBP:0   MisRate:0.00%    MPKI:0.00
PC:15fd2     Total:13053      MisBP:0   MisRate:0.00%    MPKI:0.00
PC:15fd0     Total:13053      MisBP:0   MisRate:0.00%    MPKI:0.00
PC:10f8e     Total:169      MisBP:0   MisRate:0.00%    MPKI:0.00
PC:15fce     Total:13032      MisBP:0   MisRate:0.00%    MPKI:0.00
PC:15fca     Total:13032      MisBP:0   MisRate:0.00%    MPKI:0.00
PC:15fc6     Total:13032      MisBP:0   MisRate:0.00%    MPKI:0.00
PC:160b6     Total:13031      MisBP:0   MisRate:0.00%    MPKI:0.00
PC:160d0     Total:13036      MisBP:0   MisRate:0.00%    MPKI:0.00
PC:160ce     Total:13017      MisBP:0   MisRate:0.00%    MPKI:0.00
PC:160cc     Total:13015      MisBP:0   MisRate:0.00%    MPKI:0.00
PC:160ca     Total:13015      MisBP:0   MisRate:0.00%    MPKI:0.00
PC:160c6     Total:13015      MisBP:0   MisRate:0.00%    MPKI:0.00
PC:160c4     Total:13015      MisBP:0   MisRate:0.00%    MPKI:0.00
PC:160c2     Total:13015      MisBP:0   MisRate:0.00%    MPKI:0.00
PC:160c0     Total:12992      MisBP:0   MisRate:0.00%    MPKI:0.00
PC:160bc     Total:13057      MisBP:0   MisRate:0.00%    MPKI:0.00
PC:160ba     Total:13057      MisBP:0   MisRate:0.00%    MPKI:0.00
PC:160b8     Total:13057      MisBP:0   MisRate:0.00%    MPKI:0.00
PC:160d2     Total:13035      MisBP:0   MisRate:0.00%    MPKI:0.00
PC:160b2     Total:13031      MisBP:0   MisRate:0.00%    MPKI:0.00
PC:160b0     Total:13031      MisBP:0   MisRate:0.00%    MPKI:0.00
PC:160ae     Total:13031      MisBP:0   MisRate:0.00%    MPKI:0.00
[...]
PC:10210     Total:6      MisBP:0   MisRate:0.00%    MPKI:0.00
PC:14b7c     Total:5      MisBP:0   MisRate:0.00%    MPKI:0.00
PC:1333e     Total:160      MisBP:0   MisRate:0.00%    MPKI:0.00
PC:16920     Total:9      MisBP:0   MisRate:0.00%    MPKI:0.00
PC:15afc     Total:13060      MisBP:0   MisRate:0.00%    MPKI:0.00
PC:11f86     Total:67925      MisBP:0   MisRate:0.00%    MPKI:0.00
PC:1409c     Total:141      MisBP:0   MisRate:0.00%    MPKI:0.00
PC:11b4c     Total:169931      MisBP:0   MisRate:0.00%    MPKI:0.00
PC:11b16     Total:109      MisBP:0   MisRate:0.00%    MPKI:0.00
PC:123be     Total:62265      MisBP:0   MisRate:0.00%    MPKI:0.00
PC:123c0     Total:61467      MisBP:0   MisRate:0.00%    MPKI:0.00
PC:13340     Total:166      MisBP:0   MisRate:0.00%    MPKI:0.00
PC:15afe     Total:13060      MisBP:0   MisRate:0.00%    MPKI:0.00
PC:14c48     Total:5438      MisBP:0   MisRate:0.00%    MPKI:0.00
PC:1248a     Total:19140      MisBP:0   MisRate:0.00%    MPKI:0.00
PC:191a4     Total:3      MisBP:0   MisRate:0.00%    MPKI:0.00
PC:11f88     Total:67921      MisBP:0   MisRate:0.00%    MPKI:0.00
PC:13342     Total:166      MisBP:0   MisRate:0.00%    MPKI:0.00
PC:11f78     Total:70652      MisBP:0   MisRate:0.00%    MPKI:0.00
PC:15b00     Total:13017      MisBP:0   MisRate:0.00%    MPKI:0.00
PC:1248e     Total:19137      MisBP:0   MisRate:0.00%    MPKI:0.00
PC:15252     Total:1      MisBP:0   MisRate:0.00%    MPKI:0.00
PC:124b8     Total:5078      MisBP:0   MisRate:0.00%    MPKI:0.00
PC:1317c     Total:329      MisBP:0   MisRate:0.00%    MPKI:0.00
PC:1593a     Total:12820      MisBP:0   MisRate:0.00%    MPKI:0.00
PC:15bf6     Total:13300      MisBP:0   MisRate:0.00%    MPKI:0.00
PC:11f80     Total:268      MisBP:0   MisRate:0.00%    MPKI:0.00
PC:15de4     Total:13095      MisBP:0   MisRate:0.00%    MPKI:0.00
PC:12082     Total:356      MisBP:0   MisRate:0.00%    MPKI:0.00
PC:14c7a     Total:6774      MisBP:0   MisRate:0.00%    MPKI:0.00
PC:124bc     Total:5045      MisBP:0   MisRate:0.00%    MPKI:0.00
PC:15bfa     Total:13283      MisBP:0   MisRate:0.00%    MPKI:0.00
PC:11f84     Total:67874      MisBP:0   MisRate:0.00%    MPKI:0.00
PC:15bee     Total:13253      MisBP:0   MisRate:0.00%    MPKI:0.00
PC:11f76     Total:70694      MisBP:0   MisRate:0.00%    MPKI:0.00
PC:11b14     Total:22      MisBP:0   MisRate:0.00%    MPKI:0.00
PC:14b7a     Total:5      MisBP:0   MisRate:0.00%    MPKI:0.00
PC:11d68     Total:5      MisBP:1   MisRate:20.00%    MPKI:0.00
PC:13000     Total:2      MisBP:1   MisRate:50.00%    MPKI:0.00
PC:18fa0     Total:15      MisBP:1   MisRate:6.67%    MPKI:0.00
PC:11c66     Total:11      MisBP:1   MisRate:9.09%    MPKI:0.00
PC:152f0     Total:105      MisBP:1   MisRate:0.95%    MPKI:0.00
PC:15498     Total:12822      MisBP:1   MisRate:0.01%    MPKI:0.00
PC:167d0     Total:192      MisBP:1   MisRate:0.52%    MPKI:0.00
PC:1272a     Total:146      MisBP:1   MisRate:0.68%    MPKI:0.00
PC:11c96     Total:11      MisBP:1   MisRate:9.09%    MPKI:0.00
PC:29404     Total:161      MisBP:1   MisRate:0.62%    MPKI:0.00
PC:12e6c     Total:71195      MisBP:1   MisRate:0.00%    MPKI:0.00
PC:165a8     Total:1      MisBP:1   MisRate:100.00%    MPKI:0.00
PC:111de     Total:28      MisBP:1   MisRate:3.57%    MPKI:0.00
PC:18fb2     Total:15      MisBP:1   MisRate:6.67%    MPKI:0.00
PC:11a16     Total:557508      MisBP:1   MisRate:0.00%    MPKI:0.00
PC:119be     Total:13037721      MisBP:1   MisRate:0.00%    MPKI:0.00
PC:12fde     Total:1      MisBP:1   MisRate:100.00%    MPKI:0.00
PC:121be     Total:484      MisBP:1   MisRate:0.21%    MPKI:0.00
PC:12fd8     Total:1      MisBP:1   MisRate:100.00%    MPKI:0.00
PC:3623a     Total:46      MisBP:1   MisRate:2.17%    MPKI:0.00
PC:141a8     Total:165      MisBP:1   MisRate:0.61%    MPKI:0.00
PC:125b2     Total:1      MisBP:1   MisRate:100.00%    MPKI:0.00
PC:125f0     Total:653288      MisBP:1   MisRate:0.00%    MPKI:0.00
PC:11b12     Total:37046      MisBP:1   MisRate:0.00%    MPKI:0.00
PC:15504     Total:6      MisBP:1   MisRate:16.67%    MPKI:0.00
PC:12902     Total:141      MisBP:1   MisRate:0.71%    MPKI:0.00
PC:3624e     Total:37      MisBP:1   MisRate:2.70%    MPKI:0.00
PC:11b88     Total:1      MisBP:1   MisRate:100.00%    MPKI:0.00
PC:14af2     Total:1      MisBP:1   MisRate:100.00%    MPKI:0.00
PC:14f2e     Total:4      MisBP:1   MisRate:25.00%    MPKI:0.00
PC:15196     Total:1      MisBP:1   MisRate:100.00%    MPKI:0.00
PC:10f9c     Total:149      MisBP:1   MisRate:0.67%    MPKI:0.00
PC:14f1e     Total:10      MisBP:1   MisRate:10.00%    MPKI:0.00
PC:130ae     Total:731644      MisBP:1   MisRate:0.00%    MPKI:0.00
PC:12640     Total:17      MisBP:2   MisRate:11.76%    MPKI:0.00
PC:29348     Total:172      MisBP:2   MisRate:1.16%    MPKI:0.00
PC:15286     Total:159      MisBP:2   MisRate:1.26%    MPKI:0.00
PC:12e5c     Total:164      MisBP:2   MisRate:1.22%    MPKI:0.00
PC:165be     Total:15      MisBP:2   MisRate:13.33%    MPKI:0.00
PC:1104e     Total:141      MisBP:2   MisRate:1.42%    MPKI:0.00
PC:166f0     Total:9      MisBP:2   MisRate:22.22%    MPKI:0.00
PC:14f58     Total:21      MisBP:2   MisRate:9.52%    MPKI:0.00
PC:167fa     Total:9      MisBP:2   MisRate:22.22%    MPKI:0.00
PC:1666e     Total:12      MisBP:2   MisRate:16.67%    MPKI:0.00
PC:140be     Total:141      MisBP:2   MisRate:1.42%    MPKI:0.00
PC:1253a     Total:32      MisBP:2   MisRate:6.25%    MPKI:0.00
PC:14bfe     Total:5379      MisBP:2   MisRate:0.04%    MPKI:0.00
PC:13074     Total:1347      MisBP:2   MisRate:0.15%    MPKI:0.00
PC:1532a     Total:8      MisBP:2   MisRate:25.00%    MPKI:0.00
PC:14bc4     Total:385      MisBP:2   MisRate:0.52%    MPKI:0.00
PC:13354     Total:831      MisBP:2   MisRate:0.24%    MPKI:0.00
PC:18dc0     Total:3144      MisBP:2   MisRate:0.06%    MPKI:0.00
PC:15408     Total:12826      MisBP:2   MisRate:0.02%    MPKI:0.00
PC:153d2     Total:11      MisBP:2   MisRate:18.18%    MPKI:0.00
PC:125f6     Total:653290      MisBP:2   MisRate:0.00%    MPKI:0.00
PC:16802     Total:2      MisBP:2   MisRate:100.00%    MPKI:0.00
PC:16896     Total:13      MisBP:2   MisRate:15.38%    MPKI:0.00
PC:18d92     Total:1526      MisBP:3   MisRate:0.20%    MPKI:0.00
PC:12f14     Total:15      MisBP:3   MisRate:20.00%    MPKI:0.00
PC:11d8a     Total:260      MisBP:3   MisRate:1.15%    MPKI:0.00
PC:151f0     Total:12      MisBP:3   MisRate:25.00%    MPKI:0.00
PC:166e8     Total:71      MisBP:3   MisRate:4.23%    MPKI:0.00
PC:166b6     Total:38      MisBP:3   MisRate:7.89%    MPKI:0.00
PC:12eae     Total:19      MisBP:3   MisRate:15.79%    MPKI:0.00
PC:11bb4     Total:65551      MisBP:3   MisRate:0.00%    MPKI:0.00
PC:1511c     Total:823643      MisBP:3   MisRate:0.00%    MPKI:0.00
PC:16768     Total:5      MisBP:3   MisRate:60.00%    MPKI:0.00
PC:16760     Total:5660      MisBP:3   MisRate:0.05%    MPKI:0.00
PC:16696     Total:39      MisBP:3   MisRate:7.69%    MPKI:0.00
PC:16854     Total:6122      MisBP:3   MisRate:0.05%    MPKI:0.00
PC:121f0     Total:433      MisBP:4   MisRate:0.92%    MPKI:0.00
PC:14bde     Total:95      MisBP:4   MisRate:4.21%    MPKI:0.00
PC:14f16     Total:6712      MisBP:4   MisRate:0.06%    MPKI:0.00
PC:154cc     Total:35      MisBP:4   MisRate:11.43%    MPKI:0.00
PC:18fd0     Total:9      MisBP:4   MisRate:44.44%    MPKI:0.00
PC:11c90     Total:53      MisBP:4   MisRate:7.55%    MPKI:0.00
PC:151f8     Total:4      MisBP:4   MisRate:100.00%    MPKI:0.00
PC:12e56     Total:147      MisBP:4   MisRate:2.72%    MPKI:0.00
PC:293d0     Total:158      MisBP:4   MisRate:2.53%    MPKI:0.00
PC:29818     Total:30      MisBP:4   MisRate:13.33%    MPKI:0.00
PC:1593e     Total:12815      MisBP:4   MisRate:0.03%    MPKI:0.00
PC:11d9a     Total:18      MisBP:5   MisRate:27.78%    MPKI:0.00
PC:15934     Total:13051      MisBP:5   MisRate:0.04%    MPKI:0.00
PC:18de2     Total:84      MisBP:5   MisRate:5.95%    MPKI:0.00
PC:14bf6     Total:95      MisBP:5   MisRate:5.26%    MPKI:0.00
PC:11d58     Total:175122      MisBP:5   MisRate:0.00%    MPKI:0.00
PC:29354     Total:26      MisBP:5   MisRate:19.23%    MPKI:0.00
PC:152aa     Total:8      MisBP:5   MisRate:62.50%    MPKI:0.00
PC:12eda     Total:272      MisBP:5   MisRate:1.84%    MPKI:0.00
PC:154fa     Total:34      MisBP:6   MisRate:17.65%    MPKI:0.00
PC:13382     Total:156      MisBP:6   MisRate:3.85%    MPKI:0.00
PC:14162     Total:206      MisBP:6   MisRate:2.91%    MPKI:0.00
PC:29470     Total:148      MisBP:6   MisRate:4.05%    MPKI:0.00
PC:10158     Total:573      MisBP:6   MisRate:1.05%    MPKI:0.00
PC:1697a     Total:333      MisBP:6   MisRate:1.80%    MPKI:0.00
PC:15576     Total:12819      MisBP:6   MisRate:0.05%    MPKI:0.00
PC:153a8     Total:93      MisBP:6   MisRate:6.45%    MPKI:0.00
PC:13346     Total:166      MisBP:6   MisRate:3.61%    MPKI:0.00
PC:166c4     Total:62      MisBP:7   MisRate:11.29%    MPKI:0.00
PC:1530e     Total:467      MisBP:7   MisRate:1.50%    MPKI:0.00
PC:1417e     Total:23      MisBP:7   MisRate:30.43%    MPKI:0.00
PC:140d2     Total:1227      MisBP:8   MisRate:0.65%    MPKI:0.00
PC:10ecc     Total:157      MisBP:8   MisRate:5.10%    MPKI:0.00
PC:167f2     Total:944      MisBP:8   MisRate:0.85%    MPKI:0.00
PC:16644     Total:503      MisBP:9   MisRate:1.79%    MPKI:0.00
PC:153cc     Total:29      MisBP:9   MisRate:31.03%    MPKI:0.00
PC:1308a     Total:21812      MisBP:9   MisRate:0.04%    MPKI:0.00
PC:166a8     Total:38      MisBP:9   MisRate:23.68%    MPKI:0.00
PC:11cc6     Total:65553      MisBP:10   MisRate:0.02%    MPKI:0.00
PC:16606     Total:6094      MisBP:10   MisRate:0.16%    MPKI:0.00
PC:11c50     Total:175118      MisBP:10   MisRate:0.01%    MPKI:0.00
PC:121dc     Total:469      MisBP:10   MisRate:2.13%    MPKI:0.00
PC:18e8c     Total:81      MisBP:10   MisRate:12.35%    MPKI:0.00
PC:1208c     Total:355      MisBP:10   MisRate:2.82%    MPKI:0.00
PC:151e8     Total:602      MisBP:10   MisRate:1.66%    MPKI:0.00
PC:15444     Total:56      MisBP:10   MisRate:17.86%    MPKI:0.00
PC:29654     Total:1974      MisBP:11   MisRate:0.56%    MPKI:0.00
PC:14168     Total:206      MisBP:11   MisRate:5.34%    MPKI:0.00
PC:12180     Total:577      MisBP:11   MisRate:1.91%    MPKI:0.00
PC:1414a     Total:183      MisBP:11   MisRate:6.01%    MPKI:0.00
PC:12da0     Total:131      MisBP:12   MisRate:9.16%    MPKI:0.00
PC:12efc     Total:149      MisBP:13   MisRate:8.72%    MPKI:0.00
PC:12182     Total:25      MisBP:14   MisRate:56.00%    MPKI:0.00
PC:15292     Total:165      MisBP:15   MisRate:9.09%    MPKI:0.00
PC:120e6     Total:409      MisBP:16   MisRate:3.91%    MPKI:0.00
PC:12ea0     Total:71198      MisBP:17   MisRate:0.02%    MPKI:0.00
PC:153c2     Total:1967      MisBP:17   MisRate:0.86%    MPKI:0.00
PC:18e84     Total:6179      MisBP:17   MisRate:0.28%    MPKI:0.00
PC:12224     Total:370      MisBP:17   MisRate:4.59%    MPKI:0.00
PC:297a0     Total:34      MisBP:18   MisRate:52.94%    MPKI:0.00
PC:1227c     Total:77453      MisBP:19   MisRate:0.02%    MPKI:0.00
PC:18e28     Total:1216      MisBP:19   MisRate:1.56%    MPKI:0.00
PC:293c4     Total:172      MisBP:19   MisRate:11.05%    MPKI:0.00
PC:11e2a     Total:40      MisBP:23   MisRate:57.50%    MPKI:0.00
PC:15302     Total:555      MisBP:23   MisRate:4.14%    MPKI:0.00
PC:18e16     Total:3245      MisBP:24   MisRate:0.74%    MPKI:0.00
PC:166e2     Total:306      MisBP:26   MisRate:8.50%    MPKI:0.00
PC:29804     Total:1230      MisBP:29   MisRate:2.36%    MPKI:0.00
PC:16692     Total:748      MisBP:31   MisRate:4.14%    MPKI:0.00
PC:18ca4     Total:3798      MisBP:33   MisRate:0.87%    MPKI:0.00
PC:11e26     Total:2332      MisBP:35   MisRate:1.50%    MPKI:0.00
PC:12140     Total:393      MisBP:36   MisRate:9.16%    MPKI:0.00
PC:14bb6     Total:384      MisBP:38   MisRate:9.90%    MPKI:0.00
PC:18c2e     Total:4549      MisBP:39   MisRate:0.86%    MPKI:0.00
PC:11dfc     Total:1700      MisBP:40   MisRate:2.35%    MPKI:0.00
PC:166d4     Total:317      MisBP:41   MisRate:12.93%    MPKI:0.00
PC:15440     Total:276      MisBP:44   MisRate:15.94%    MPKI:0.00
PC:18b64     Total:4367      MisBP:46   MisRate:1.05%    MPKI:0.00
PC:18c4e     Total:211      MisBP:47   MisRate:22.27%    MPKI:0.00
PC:18bf8     Total:4579      MisBP:52   MisRate:1.14%    MPKI:0.00
PC:18cc4     Total:140      MisBP:57   MisRate:40.71%    MPKI:0.00
PC:1668c     Total:738      MisBP:60   MisRate:8.13%    MPKI:0.00
PC:167cc     Total:271      MisBP:60   MisRate:22.14%    MPKI:0.00
PC:18de0     Total:3401      MisBP:68   MisRate:2.00%    MPKI:0.00
PC:12d9c     Total:21671      MisBP:83   MisRate:0.38%    MPKI:0.00
PC:1221c     Total:477062      MisBP:109   MisRate:0.02%    MPKI:0.00
PC:11f7a     Total:70645      MisBP:110   MisRate:0.16%    MPKI:0.00
PC:167e4     Total:959      MisBP:111   MisRate:11.57%    MPKI:0.00
PC:167b8     Total:906      MisBP:117   MisRate:12.91%    MPKI:0.00
PC:1211e     Total:382324      MisBP:125   MisRate:0.03%    MPKI:0.00
PC:18cd8     Total:17138      MisBP:134   MisRate:0.78%    MPKI:0.00
PC:29454     Total:592      MisBP:143   MisRate:24.16%    MPKI:0.00
PC:130b6     Total:731021      MisBP:173   MisRate:0.02%    MPKI:0.00
PC:18c62     Total:16757      MisBP:196   MisRate:1.17%    MPKI:0.00
PC:12178     Total:374159      MisBP:231   MisRate:0.06%    MPKI:0.00
PC:18cfe     Total:15918      MisBP:260   MisRate:1.63%    MPKI:0.00
PC:1207e     Total:84716      MisBP:283   MisRate:0.33%    MPKI:0.00
PC:11e7e     Total:41053      MisBP:299   MisRate:0.73%    MPKI:0.00
PC:11e60     Total:83965      MisBP:324   MisRate:0.39%    MPKI:0.00
PC:120ce     Total:65524      MisBP:329   MisRate:0.50%    MPKI:0.00
PC:18d84     Total:2265      MisBP:333   MisRate:14.70%    MPKI:0.00
PC:121ae     Total:68466      MisBP:344   MisRate:0.50%    MPKI:0.00
PC:14a5a     Total:167617      MisBP:359   MisRate:0.21%    MPKI:0.00
PC:11e18     Total:3564      MisBP:405   MisRate:11.36%    MPKI:0.00
PC:18b5a     Total:4217      MisBP:525   MisRate:12.45%    MPKI:0.00
PC:16752     Total:2703      MisBP:602   MisRate:22.27%    MPKI:0.00
PC:18c88     Total:15243      MisBP:656   MisRate:4.30%    MPKI:0.00
PC:18bce     Total:5255      MisBP:667   MisRate:12.69%    MPKI:0.00
PC:18d68     Total:3903      MisBP:672   MisRate:17.22%    MPKI:0.00
PC:165f8     Total:5443      MisBP:839   MisRate:15.41%    MPKI:0.00
PC:16740     Total:5041      MisBP:892   MisRate:17.69%    MPKI:0.00
PC:165e6     Total:5618      MisBP:1012   MisRate:18.01%    MPKI:0.00
PC:123d8     Total:44260      MisBP:1054   MisRate:2.38%    MPKI:0.00
PC:18bec     Total:14035      MisBP:1206   MisRate:8.59%    MPKI:0.00
PC:11ada     Total:56378      MisBP:1218   MisRate:2.16%    MPKI:0.00
PC:18c5a     Total:14189      MisBP:1343   MisRate:9.47%    MPKI:0.00
PC:11aee     Total:44215      MisBP:1392   MisRate:3.15%    MPKI:0.00
PC:18cd0     Total:15524      MisBP:1929   MisRate:12.43%    MPKI:0.01
PC:11ac4     Total:73652      MisBP:2001   MisRate:2.72%    MPKI:0.01
PC:18dd0     Total:76976      MisBP:2259   MisRate:2.93%    MPKI:0.01
PC:11f64     Total:26844      MisBP:2469   MisRate:9.20%    MPKI:0.01
PC:124aa     Total:18775      MisBP:2511   MisRate:13.37%    MPKI:0.01
PC:12430     Total:15903      MisBP:2696   MisRate:16.95%    MPKI:0.01
PC:12476     Total:16515      MisBP:2966   MisRate:17.96%    MPKI:0.01
PC:123f8     Total:17425      MisBP:3094   MisRate:17.76%    MPKI:0.01
PC:12d8a     Total:44648      MisBP:3371   MisRate:7.55%    MPKI:0.01
PC:150d8     Total:29322      MisBP:3583   MisRate:12.22%    MPKI:0.01
PC:11e6a     Total:83818      MisBP:4502   MisRate:5.37%    MPKI:0.01
PC:11f08     Total:31169      MisBP:5131   MisRate:16.46%    MPKI:0.02
PC:12242     Total:38460      MisBP:5912   MisRate:15.37%    MPKI:0.02
PC:11ae6     Total:54613      MisBP:5920   MisRate:10.84%    MPKI:0.02
PC:11aae     Total:122065      MisBP:6080   MisRate:4.98%    MPKI:0.02
PC:11ad0     Total:68488      MisBP:6881   MisRate:10.05%    MPKI:0.02
PC:11a98     Total:179180      MisBP:7544   MisRate:4.21%    MPKI:0.02
PC:12030     Total:1428204      MisBP:8788   MisRate:0.62%    MPKI:0.03
PC:12418     Total:306099      MisBP:9431   MisRate:3.08%    MPKI:0.03
PC:12454     Total:204855      MisBP:9742   MisRate:4.76%    MPKI:0.03
PC:150e2     Total:206971      MisBP:9923   MisRate:4.79%    MPKI:0.03
PC:11ec8     Total:60808      MisBP:10827   MisRate:17.81%    MPKI:0.03
PC:12102     Total:374464      MisBP:11332   MisRate:3.03%    MPKI:0.04
PC:11a6c     Total:416301      MisBP:11483   MisRate:2.76%    MPKI:0.04
PC:122f2     Total:666027      MisBP:12043   MisRate:1.81%    MPKI:0.04
PC:13086     Total:711799      MisBP:12470   MisRate:1.75%    MPKI:0.04
PC:1546e     Total:154294      MisBP:12801   MisRate:8.30%    MPKI:0.04
PC:15402     Total:166682      MisBP:12815   MisRate:7.69%    MPKI:0.04
PC:11a82     Total:284823      MisBP:13635   MisRate:4.79%    MPKI:0.04
PC:11a4a     Total:654118      MisBP:14504   MisRate:2.22%    MPKI:0.05
PC:123ba     Total:532654      MisBP:15094   MisRate:2.83%    MPKI:0.05
PC:11aba     Total:105619      MisBP:15551   MisRate:14.72%    MPKI:0.05
PC:130c2     Total:719281      MisBP:15777   MisRate:2.19%    MPKI:0.05
PC:1215e     Total:364733      MisBP:15959   MisRate:4.38%    MPKI:0.05
PC:1234a     Total:602536      MisBP:17120   MisRate:2.84%    MPKI:0.06
PC:11f5c     Total:3815495      MisBP:17637   MisRate:0.46%    MPKI:0.06
PC:1508e     Total:206370      MisBP:18362   MisRate:8.90%    MPKI:0.06
PC:123c4     Total:61420      MisBP:18741   MisRate:30.51%    MPKI:0.06
PC:1508c     Total:789178      MisBP:21257   MisRate:2.69%    MPKI:0.07
PC:1236c     Total:743882      MisBP:22219   MisRate:2.99%    MPKI:0.07
PC:11aa4     Total:147436      MisBP:22552   MisRate:15.30%    MPKI:0.07
PC:122be     Total:696523      MisBP:23381   MisRate:3.36%    MPKI:0.08
PC:12314     Total:783421      MisBP:23651   MisRate:3.02%    MPKI:0.08
PC:11a8e     Total:225951      MisBP:27159   MisRate:12.02%    MPKI:0.09
PC:11a20     Total:882130      MisBP:31426   MisRate:3.56%    MPKI:0.10
PC:12250     Total:260834      MisBP:36603   MisRate:14.03%    MPKI:0.12
PC:119fc     Total:1199131      MisBP:37309   MisRate:3.11%    MPKI:0.12
PC:119e4     Total:1637993      MisBP:37996   MisRate:2.32%    MPKI:0.12
PC:119f4     Total:1303067      MisBP:38124   MisRate:2.93%    MPKI:0.12
PC:11a04     Total:1072461      MisBP:41303   MisRate:3.85%    MPKI:0.13
PC:119d4     Total:2087588      MisBP:42173   MisRate:2.02%    MPKI:0.14
PC:11a78     Total:351604      MisBP:43355   MisRate:12.33%    MPKI:0.14
PC:119ec     Total:1469835      MisBP:45035   MisRate:3.06%    MPKI:0.15
PC:11a5e     Total:485880      MisBP:49399   MisRate:10.17%    MPKI:0.16
PC:11a0c     Total:985574      MisBP:54161   MisRate:5.50%    MPKI:0.17
PC:11a28     Total:829962      MisBP:57924   MisRate:6.98%    MPKI:0.19
PC:119dc     Total:1870933      MisBP:59327   MisRate:3.17%    MPKI:0.19
PC:12014     Total:885474      MisBP:62883   MisRate:7.10%    MPKI:0.20
PC:11a3a     Total:755506      MisBP:64822   MisRate:8.58%    MPKI:0.21
PC:12042     Total:1128004      MisBP:70196   MisRate:6.22%    MPKI:0.23
PC:14a2e     Total:336620      MisBP:71729   MisRate:21.31%    MPKI:0.23
PC:119cc     Total:2589236      MisBP:84987   MisRate:3.28%    MPKI:0.27
PC:119b6     Total:3461768      MisBP:120006   MisRate:3.47%    MPKI:0.39
PC:150f4     Total:3606979      MisBP:131492   MisRate:3.65%    MPKI:0.42
PC:11f40     Total:3656244      MisBP:140220   MisRate:3.84%    MPKI:0.45
PC:12040     Total:1562456      MisBP:142124   MisRate:9.10%    MPKI:0.46
PC:1238c     Total:1074310      MisBP:199945   MisRate:18.61%    MPKI:0.64
PC:12334     Total:1154964      MisBP:207723   MisRate:17.99%    MPKI:0.67
PC:122dc     Total:1081272      MisBP:228857   MisRate:21.17%    MPKI:0.74
Totfetch:502345128  TotInsts:310000004  TotMis : inf%   MPKI : 8.42
=============finish sim!!!!!!=============
Done running SimPoint!
