Global frequency set at 1000000000000 ticks per second
 Register [printBranch()] ExitCallback !!!!!!! 
gem5 Simulator System.  https://www.gem5.org
gem5 is copyrighted software; use the --copyright option for details.

gem5 version 22.0.0.2
gem5 compiled Sep  7 2022 00:42:18
gem5 started Sep  7 2022 01:25:58
gem5 executing on a100, pid 2711940
command line: /data/zxf/gem5/gem5-prof/build/ARM/gem5.fast --outdir=/data/zxf/checkpoint/spec2006/401.bzip2/prof/bzip2_ckp_1 /data/zxf/gem5/gem5-prof/configs/example/se.py --cpu-type O3CPU --cpu-clock 1GHz --num-cpu 1 --l1d-hwp-type=BOPPrefetcher --caches --l2cache --l1i_size 32kB --l1d_size 32kB --l2_size 1MB --l1i_assoc 8 --l1d_assoc 8 --l2_assoc 16 --cacheline_size 64 --mem-type DDR3_2133_8x8 --mem-size 16GB --restore-simpoint-checkpoint -r 1 --checkpoint-dir /data/zxf/checkpoint/spec2006/401.bzip2/ckpt -c bzip2_base.gcc41-64bit -o 'input.source 280'

info: Standard input is not a terminal, disabling listeners.
Resuming from /data/zxf/checkpoint/spec2006/401.bzip2/ckpt/cpt.simpoint_00_inst_4190000000_weight_0.013908_interval_300000000_warmup_10000000
Resuming from SimPoint #0, start_inst:4190000000, weight:0.013908, interval:300000000, warmup:10000000
Switch at curTick count:10000
Switched CPUS @ tick 2565359202500
[(<m5.objects.ArmCPU.ArmAtomicSimpleCPU object at 0x7fa6a926abb0>, <m5.objects.ArmCPU.ArmO3CPU object at 0x7fa6a9282e20>)]
switching cpus



+++++++++++++++++++++++++zxf print simpoint+++++++++++++++++++++++++++
Warmed up! Dumping and resetting stats!


=============start sim!!!!!!=============
PC:16416     Total:29507      MisBP:0   MisRate:0.00%    MPKI:0.00
PC:1642c     Total:29517      MisBP:0   MisRate:0.00%    MPKI:0.00
PC:1642a     Total:29524      MisBP:0   MisRate:0.00%    MPKI:0.00
PC:16426     Total:29524      MisBP:0   MisRate:0.00%    MPKI:0.00
PC:16424     Total:29525      MisBP:0   MisRate:0.00%    MPKI:0.00
PC:16422     Total:29525      MisBP:0   MisRate:0.00%    MPKI:0.00
PC:16420     Total:29529      MisBP:0   MisRate:0.00%    MPKI:0.00
PC:18bdc     Total:68508      MisBP:0   MisRate:0.00%    MPKI:0.00
PC:1641e     Total:29530      MisBP:0   MisRate:0.00%    MPKI:0.00
PC:1641c     Total:29530      MisBP:0   MisRate:0.00%    MPKI:0.00
PC:18bd8     Total:68883      MisBP:0   MisRate:0.00%    MPKI:0.00
PC:1641a     Total:29439      MisBP:0   MisRate:0.00%    MPKI:0.00
PC:1642e     Total:29517      MisBP:0   MisRate:0.00%    MPKI:0.00
PC:16414     Total:29507      MisBP:0   MisRate:0.00%    MPKI:0.00
PC:16410     Total:29507      MisBP:0   MisRate:0.00%    MPKI:0.00
PC:1640e     Total:29507      MisBP:0   MisRate:0.00%    MPKI:0.00
PC:18bc8     Total:16561      MisBP:0   MisRate:0.00%    MPKI:0.00
PC:1640a     Total:29510      MisBP:0   MisRate:0.00%    MPKI:0.00
PC:18bc4     Total:33275      MisBP:0   MisRate:0.00%    MPKI:0.00
PC:16406     Total:29512      MisBP:0   MisRate:0.00%    MPKI:0.00
PC:16404     Total:29512      MisBP:0   MisRate:0.00%    MPKI:0.00
PC:16400     Total:29512      MisBP:0   MisRate:0.00%    MPKI:0.00
PC:18bbc     Total:17147      MisBP:0   MisRate:0.00%    MPKI:0.00
PC:16440     Total:29456      MisBP:0   MisRate:0.00%    MPKI:0.00
PC:1644e     Total:29434      MisBP:0   MisRate:0.00%    MPKI:0.00
PC:18c0a     Total:45      MisBP:0   MisRate:0.00%    MPKI:0.00
PC:1644c     Total:29434      MisBP:0   MisRate:0.00%    MPKI:0.00
PC:18c08     Total:45      MisBP:0   MisRate:0.00%    MPKI:0.00
PC:1644a     Total:29438      MisBP:0   MisRate:0.00%    MPKI:0.00
PC:18c06     Total:45      MisBP:0   MisRate:0.00%    MPKI:0.00
PC:16448     Total:29444      MisBP:0   MisRate:0.00%    MPKI:0.00
PC:18c04     Total:45      MisBP:0   MisRate:0.00%    MPKI:0.00
PC:16446     Total:29450      MisBP:0   MisRate:0.00%    MPKI:0.00
PC:16442     Total:29454      MisBP:0   MisRate:0.00%    MPKI:0.00
PC:18bfe     Total:45      MisBP:0   MisRate:0.00%    MPKI:0.00
PC:163fe     Total:29695      MisBP:0   MisRate:0.00%    MPKI:0.00
PC:18bfc     Total:50      MisBP:0   MisRate:0.00%    MPKI:0.00
PC:1643e     Total:29577      MisBP:0   MisRate:0.00%    MPKI:0.00
PC:1643a     Total:29549      MisBP:0   MisRate:0.00%    MPKI:0.00
PC:18bf6     Total:15835      MisBP:0   MisRate:0.00%    MPKI:0.00
PC:16438     Total:29558      MisBP:0   MisRate:0.00%    MPKI:0.00
PC:18bf4     Total:15861      MisBP:0   MisRate:0.00%    MPKI:0.00
PC:16436     Total:29568      MisBP:0   MisRate:0.00%    MPKI:0.00
PC:16434     Total:29530      MisBP:0   MisRate:0.00%    MPKI:0.00
PC:16432     Total:29537      MisBP:0   MisRate:0.00%    MPKI:0.00
PC:16430     Total:29516      MisBP:0   MisRate:0.00%    MPKI:0.00
PC:163d4     Total:29185      MisBP:0   MisRate:0.00%    MPKI:0.00
PC:163e6     Total:29222      MisBP:0   MisRate:0.00%    MPKI:0.00
PC:163e4     Total:29222      MisBP:0   MisRate:0.00%    MPKI:0.00
PC:18ba0     Total:48      MisBP:0   MisRate:0.00%    MPKI:0.00
PC:163e2     Total:29256      MisBP:0   MisRate:0.00%    MPKI:0.00
PC:163e0     Total:29185      MisBP:0   MisRate:0.00%    MPKI:0.00
PC:18b9a     Total:43      MisBP:0   MisRate:0.00%    MPKI:0.00
PC:163dc     Total:29185      MisBP:0   MisRate:0.00%    MPKI:0.00
PC:163da     Total:29185      MisBP:0   MisRate:0.00%    MPKI:0.00
PC:18b94     Total:43      MisBP:0   MisRate:0.00%    MPKI:0.00
PC:163d6     Total:29185      MisBP:0   MisRate:0.00%    MPKI:0.00
PC:18b92     Total:43      MisBP:0   MisRate:0.00%    MPKI:0.00
PC:18ba4     Total:48      MisBP:0   MisRate:0.00%    MPKI:0.00
PC:163d2     Total:29118      MisBP:0   MisRate:0.00%    MPKI:0.00
PC:18b8e     Total:37      MisBP:0   MisRate:0.00%    MPKI:0.00
PC:163d0     Total:29118      MisBP:0   MisRate:0.00%    MPKI:0.00
PC:18b8c     Total:37      MisBP:0   MisRate:0.00%    MPKI:0.00
PC:163ce     Total:29128      MisBP:0   MisRate:0.00%    MPKI:0.00
PC:163cc     Total:29044      MisBP:0   MisRate:0.00%    MPKI:0.00
PC:18b88     Total:37      MisBP:0   MisRate:0.00%    MPKI:0.00
PC:163ca     Total:29045      MisBP:0   MisRate:0.00%    MPKI:0.00
PC:18b86     Total:28      MisBP:0   MisRate:0.00%    MPKI:0.00
PC:163c8     Total:29045      MisBP:0   MisRate:0.00%    MPKI:0.00
PC:1dbf0     Total:318      MisBP:0   MisRate:0.00%    MPKI:0.00
PC:18bb8     Total:17150      MisBP:0   MisRate:0.00%    MPKI:0.00
PC:1dbfa     Total:302      MisBP:0   MisRate:0.00%    MPKI:0.00
PC:163fa     Total:29653      MisBP:0   MisRate:0.00%    MPKI:0.00
PC:163f8     Total:29655      MisBP:0   MisRate:0.00%    MPKI:0.00
PC:18bb2     Total:17186      MisBP:0   MisRate:0.00%    MPKI:0.00
PC:1dbf4     Total:604      MisBP:0   MisRate:0.00%    MPKI:0.00
PC:163f4     Total:29511      MisBP:0   MisRate:0.00%    MPKI:0.00
PC:18bb0     Total:17193      MisBP:0   MisRate:0.00%    MPKI:0.00
PC:1dbf2     Total:318      MisBP:0   MisRate:0.00%    MPKI:0.00
PC:163f2     Total:29512      MisBP:0   MisRate:0.00%    MPKI:0.00
PC:18bae     Total:48      MisBP:0   MisRate:0.00%    MPKI:0.00
PC:18c0c     Total:45      MisBP:0   MisRate:0.00%    MPKI:0.00
PC:163f0     Total:29513      MisBP:0   MisRate:0.00%    MPKI:0.00
PC:18bac     Total:48      MisBP:0   MisRate:0.00%    MPKI:0.00
PC:1dbee     Total:636      MisBP:0   MisRate:0.00%    MPKI:0.00
PC:163ee     Total:29513      MisBP:0   MisRate:0.00%    MPKI:0.00
PC:18baa     Total:48      MisBP:0   MisRate:0.00%    MPKI:0.00
PC:1dbec     Total:1272      MisBP:0   MisRate:0.00%    MPKI:0.00
PC:163ec     Total:29513      MisBP:0   MisRate:0.00%    MPKI:0.00
PC:163ea     Total:29447      MisBP:0   MisRate:0.00%    MPKI:0.00
PC:18ba6     Total:48      MisBP:0   MisRate:0.00%    MPKI:0.00
PC:163e8     Total:29447      MisBP:0   MisRate:0.00%    MPKI:0.00
PC:16498     Total:29113      MisBP:0   MisRate:0.00%    MPKI:0.00
PC:18c66     Total:61907      MisBP:0   MisRate:0.00%    MPKI:0.00
PC:164a8     Total:29130      MisBP:0   MisRate:0.00%    MPKI:0.00
PC:18c64     Total:61909      MisBP:0   MisRate:0.00%    MPKI:0.00
PC:164a6     Total:29185      MisBP:0   MisRate:0.00%    MPKI:0.00
PC:164a2     Total:29185      MisBP:0   MisRate:0.00%    MPKI:0.00
PC:18c5e     Total:62556      MisBP:0   MisRate:0.00%    MPKI:0.00
PC:164a0     Total:29186      MisBP:0   MisRate:0.00%    MPKI:0.00
PC:18c5c     Total:62690      MisBP:0   MisRate:0.00%    MPKI:0.00
PC:1649e     Total:29187      MisBP:0   MisRate:0.00%    MPKI:0.00
PC:18c58     Total:55601      MisBP:0   MisRate:0.00%    MPKI:0.00
PC:1649a     Total:29111      MisBP:0   MisRate:0.00%    MPKI:0.00
PC:164ac     Total:29115      MisBP:0   MisRate:0.00%    MPKI:0.00
PC:18c54     Total:55604      MisBP:0   MisRate:0.00%    MPKI:0.00
PC:16496     Total:29105      MisBP:0   MisRate:0.00%    MPKI:0.00
PC:18c52     Total:55606      MisBP:0   MisRate:0.00%    MPKI:0.00
PC:16494     Total:29165      MisBP:0   MisRate:0.00%    MPKI:0.00
PC:18c50     Total:55611      MisBP:0   MisRate:0.00%    MPKI:0.00
PC:16492     Total:29230      MisBP:0   MisRate:0.00%    MPKI:0.00
PC:16490     Total:29233      MisBP:0   MisRate:0.00%    MPKI:0.00
PC:18c4c     Total:253      MisBP:0   MisRate:0.00%    MPKI:0.00
PC:1648e     Total:29160      MisBP:0   MisRate:0.00%    MPKI:0.00
PC:1648c     Total:29161      MisBP:0   MisRate:0.00%    MPKI:0.00
PC:164ca     Total:29174      MisBP:0   MisRate:0.00%    MPKI:0.00
PC:164d6     Total:29112      MisBP:0   MisRate:0.00%    MPKI:0.00
PC:1dc0e     Total:5      MisBP:0   MisRate:0.00%    MPKI:0.00
PC:18bcc     Total:16534      MisBP:0   MisRate:0.00%    MPKI:0.00
PC:164d4     Total:29112      MisBP:0   MisRate:0.00%    MPKI:0.00
PC:1dc0c     Total:25      MisBP:0   MisRate:0.00%    MPKI:0.00
PC:18c90     Total:11788      MisBP:0   MisRate:0.00%    MPKI:0.00
PC:164d2     Total:29113      MisBP:0   MisRate:0.00%    MPKI:0.00
PC:18c8e     Total:11791      MisBP:0   MisRate:0.00%    MPKI:0.00
PC:164d0     Total:29174      MisBP:0   MisRate:0.00%    MPKI:0.00
PC:18c8a     Total:11754      MisBP:0   MisRate:0.00%    MPKI:0.00
PC:164cc     Total:29174      MisBP:0   MisRate:0.00%    MPKI:0.00
PC:18c48     Total:253      MisBP:0   MisRate:0.00%    MPKI:0.00
PC:164c8     Total:29176      MisBP:0   MisRate:0.00%    MPKI:0.00
PC:18c84     Total:58002      MisBP:0   MisRate:0.00%    MPKI:0.00
PC:164c6     Total:29061      MisBP:0   MisRate:0.00%    MPKI:0.00
PC:18c82     Total:58014      MisBP:0   MisRate:0.00%    MPKI:0.00
PC:164c4     Total:29061      MisBP:0   MisRate:0.00%    MPKI:0.00
PC:18c7a     Total:61516      MisBP:0   MisRate:0.00%    MPKI:0.00
PC:164bc     Total:29111      MisBP:0   MisRate:0.00%    MPKI:0.00
PC:164b0     Total:29111      MisBP:0   MisRate:0.00%    MPKI:0.00
PC:18c6c     Total:61707      MisBP:0   MisRate:0.00%    MPKI:0.00
PC:164ae     Total:29112      MisBP:0   MisRate:0.00%    MPKI:0.00
PC:1645e     Total:29327      MisBP:0   MisRate:0.00%    MPKI:0.00
PC:1646c     Total:29265      MisBP:0   MisRate:0.00%    MPKI:0.00
PC:18c28     Total:12883      MisBP:0   MisRate:0.00%    MPKI:0.00
PC:1646a     Total:29265      MisBP:0   MisRate:0.00%    MPKI:0.00
PC:18c24     Total:12889      MisBP:0   MisRate:0.00%    MPKI:0.00
PC:16466     Total:29265      MisBP:0   MisRate:0.00%    MPKI:0.00
PC:16464     Total:29300      MisBP:0   MisRate:0.00%    MPKI:0.00
PC:18c20     Total:25782      MisBP:0   MisRate:0.00%    MPKI:0.00
PC:16462     Total:29300      MisBP:0   MisRate:0.00%    MPKI:0.00
PC:18c1e     Total:12885      MisBP:0   MisRate:0.00%    MPKI:0.00
PC:16460     Total:29307      MisBP:0   MisRate:0.00%    MPKI:0.00
PC:18c1c     Total:12886      MisBP:0   MisRate:0.00%    MPKI:0.00
PC:1646e     Total:29259      MisBP:0   MisRate:0.00%    MPKI:0.00
PC:18c1a     Total:12886      MisBP:0   MisRate:0.00%    MPKI:0.00
PC:1645c     Total:29329      MisBP:0   MisRate:0.00%    MPKI:0.00
PC:18c18     Total:45      MisBP:0   MisRate:0.00%    MPKI:0.00
PC:1645a     Total:29339      MisBP:0   MisRate:0.00%    MPKI:0.00
PC:18c14     Total:45      MisBP:0   MisRate:0.00%    MPKI:0.00
PC:16456     Total:29345      MisBP:0   MisRate:0.00%    MPKI:0.00
PC:18c12     Total:45      MisBP:0   MisRate:0.00%    MPKI:0.00
PC:16454     Total:29349      MisBP:0   MisRate:0.00%    MPKI:0.00
PC:18c10     Total:45      MisBP:0   MisRate:0.00%    MPKI:0.00
PC:16452     Total:29432      MisBP:0   MisRate:0.00%    MPKI:0.00
PC:1647c     Total:29230      MisBP:0   MisRate:0.00%    MPKI:0.00
PC:1648a     Total:29113      MisBP:0   MisRate:0.00%    MPKI:0.00
PC:18c44     Total:253      MisBP:0   MisRate:0.00%    MPKI:0.00
PC:16486     Total:29115      MisBP:0   MisRate:0.00%    MPKI:0.00
PC:18c40     Total:253      MisBP:0   MisRate:0.00%    MPKI:0.00
PC:16482     Total:29115      MisBP:0   MisRate:0.00%    MPKI:0.00
PC:18c3e     Total:256      MisBP:0   MisRate:0.00%    MPKI:0.00
PC:16480     Total:29121      MisBP:0   MisRate:0.00%    MPKI:0.00
PC:18c3c     Total:12696      MisBP:0   MisRate:0.00%    MPKI:0.00
PC:1647e     Total:29265      MisBP:0   MisRate:0.00%    MPKI:0.00
PC:18c3a     Total:12705      MisBP:0   MisRate:0.00%    MPKI:0.00
PC:18b84     Total:28      MisBP:0   MisRate:0.00%    MPKI:0.00
PC:18c38     Total:12722      MisBP:0   MisRate:0.00%    MPKI:0.00
PC:1647a     Total:29233      MisBP:0   MisRate:0.00%    MPKI:0.00
PC:18c36     Total:12726      MisBP:0   MisRate:0.00%    MPKI:0.00
PC:16478     Total:29238      MisBP:0   MisRate:0.00%    MPKI:0.00
PC:16476     Total:29253      MisBP:0   MisRate:0.00%    MPKI:0.00
PC:18c32     Total:12748      MisBP:0   MisRate:0.00%    MPKI:0.00
PC:16474     Total:29209      MisBP:0   MisRate:0.00%    MPKI:0.00
PC:16472     Total:29212      MisBP:0   MisRate:0.00%    MPKI:0.00
PC:16470     Total:29259      MisBP:0   MisRate:0.00%    MPKI:0.00
PC:18c2c     Total:12835      MisBP:0   MisRate:0.00%    MPKI:0.00
PC:162c4     Total:29052      MisBP:0   MisRate:0.00%    MPKI:0.00
PC:162de     Total:29153      MisBP:0   MisRate:0.00%    MPKI:0.00
PC:162da     Total:29110      MisBP:0   MisRate:0.00%    MPKI:0.00
PC:162d8     Total:29110      MisBP:0   MisRate:0.00%    MPKI:0.00
PC:162d6     Total:29110      MisBP:0   MisRate:0.00%    MPKI:0.00
PC:162d4     Total:29110      MisBP:0   MisRate:0.00%    MPKI:0.00
PC:162d2     Total:29072      MisBP:0   MisRate:0.00%    MPKI:0.00
PC:162ce     Total:29072      MisBP:0   MisRate:0.00%    MPKI:0.00
PC:162cc     Total:29072      MisBP:0   MisRate:0.00%    MPKI:0.00
PC:162ca     Total:29072      MisBP:0   MisRate:0.00%    MPKI:0.00
PC:162c8     Total:29052      MisBP:0   MisRate:0.00%    MPKI:0.00
PC:162c6     Total:29052      MisBP:0   MisRate:0.00%    MPKI:0.00
PC:162e0     Total:29153      MisBP:0   MisRate:0.00%    MPKI:0.00
PC:162c0     Total:29052      MisBP:0   MisRate:0.00%    MPKI:0.00
PC:162be     Total:29233      MisBP:0   MisRate:0.00%    MPKI:0.00
PC:162bc     Total:29234      MisBP:0   MisRate:0.00%    MPKI:0.00
PC:162ba     Total:29193      MisBP:0   MisRate:0.00%    MPKI:0.00
PC:162b6     Total:29193      MisBP:0   MisRate:0.00%    MPKI:0.00
PC:162b4     Total:29197      MisBP:0   MisRate:0.00%    MPKI:0.00
PC:162b2     Total:29208      MisBP:0   MisRate:0.00%    MPKI:0.00
PC:162b0     Total:29114      MisBP:0   MisRate:0.00%    MPKI:0.00
PC:162ac     Total:29119      MisBP:0   MisRate:0.00%    MPKI:0.00
PC:162aa     Total:29119      MisBP:0   MisRate:0.00%    MPKI:0.00
PC:162fa     Total:29190      MisBP:0   MisRate:0.00%    MPKI:0.00
PC:1631a     Total:29017      MisBP:0   MisRate:0.00%    MPKI:0.00
PC:16316     Total:29055      MisBP:0   MisRate:0.00%    MPKI:0.00
PC:16312     Total:29055      MisBP:0   MisRate:0.00%    MPKI:0.00
PC:16310     Total:29062      MisBP:0   MisRate:0.00%    MPKI:0.00
PC:1630c     Total:29062      MisBP:0   MisRate:0.00%    MPKI:0.00
PC:16308     Total:29068      MisBP:0   MisRate:0.00%    MPKI:0.00
PC:16306     Total:29068      MisBP:0   MisRate:0.00%    MPKI:0.00
PC:16304     Total:29068      MisBP:0   MisRate:0.00%    MPKI:0.00
PC:16300     Total:29074      MisBP:0   MisRate:0.00%    MPKI:0.00
PC:162fe     Total:29144      MisBP:0   MisRate:0.00%    MPKI:0.00
PC:162fc     Total:29144      MisBP:0   MisRate:0.00%    MPKI:0.00
PC:162a8     Total:29129      MisBP:0   MisRate:0.00%    MPKI:0.00
PC:162f8     Total:29197      MisBP:0   MisRate:0.00%    MPKI:0.00
PC:162f4     Total:29197      MisBP:0   MisRate:0.00%    MPKI:0.00
PC:162f2     Total:29197      MisBP:0   MisRate:0.00%    MPKI:0.00
PC:162ee     Total:29197      MisBP:0   MisRate:0.00%    MPKI:0.00
PC:162ec     Total:29200      MisBP:0   MisRate:0.00%    MPKI:0.00
PC:162ea     Total:29200      MisBP:0   MisRate:0.00%    MPKI:0.00
PC:162e8     Total:29157      MisBP:0   MisRate:0.00%    MPKI:0.00
PC:162e6     Total:29160      MisBP:0   MisRate:0.00%    MPKI:0.00
PC:162e4     Total:29164      MisBP:0   MisRate:0.00%    MPKI:0.00
PC:162e2     Total:29164      MisBP:0   MisRate:0.00%    MPKI:0.00
PC:16258     Total:29145      MisBP:0   MisRate:0.00%    MPKI:0.00
PC:16274     Total:29131      MisBP:0   MisRate:0.00%    MPKI:0.00
PC:16270     Total:29131      MisBP:0   MisRate:0.00%    MPKI:0.00
PC:1626e     Total:29131      MisBP:0   MisRate:0.00%    MPKI:0.00
PC:1626a     Total:29132      MisBP:0   MisRate:0.00%    MPKI:0.00
PC:16268     Total:29133      MisBP:0   MisRate:0.00%    MPKI:0.00
PC:16266     Total:29143      MisBP:0   MisRate:0.00%    MPKI:0.00
PC:16264     Total:29144      MisBP:0   MisRate:0.00%    MPKI:0.00
PC:16262     Total:29149      MisBP:0   MisRate:0.00%    MPKI:0.00
PC:16260     Total:29149      MisBP:0   MisRate:0.00%    MPKI:0.00
PC:1625c     Total:29149      MisBP:0   MisRate:0.00%    MPKI:0.00
PC:1625a     Total:29149      MisBP:0   MisRate:0.00%    MPKI:0.00
PC:16276     Total:29131      MisBP:0   MisRate:0.00%    MPKI:0.00
PC:16256     Total:29147      MisBP:0   MisRate:0.00%    MPKI:0.00
PC:16254     Total:29148      MisBP:0   MisRate:0.00%    MPKI:0.00
PC:16252     Total:29148      MisBP:0   MisRate:0.00%    MPKI:0.00
PC:16250     Total:29211      MisBP:0   MisRate:0.00%    MPKI:0.00
PC:1624e     Total:29211      MisBP:0   MisRate:0.00%    MPKI:0.00
PC:1624c     Total:29215      MisBP:0   MisRate:0.00%    MPKI:0.00
PC:16248     Total:29215      MisBP:0   MisRate:0.00%    MPKI:0.00
PC:16246     Total:29215      MisBP:0   MisRate:0.00%    MPKI:0.00
PC:16244     Total:29215      MisBP:0   MisRate:0.00%    MPKI:0.00
PC:16242     Total:29124      MisBP:0   MisRate:0.00%    MPKI:0.00
PC:16290     Total:28939      MisBP:0   MisRate:0.00%    MPKI:0.00
PC:162a6     Total:29083      MisBP:0   MisRate:0.00%    MPKI:0.00
PC:162a4     Total:29083      MisBP:0   MisRate:0.00%    MPKI:0.00
PC:162a2     Total:29087      MisBP:0   MisRate:0.00%    MPKI:0.00
PC:162a0     Total:29087      MisBP:0   MisRate:0.00%    MPKI:0.00
PC:1629e     Total:28993      MisBP:0   MisRate:0.00%    MPKI:0.00
PC:1629c     Total:28995      MisBP:0   MisRate:0.00%    MPKI:0.00
PC:1629a     Total:28987      MisBP:0   MisRate:0.00%    MPKI:0.00
PC:16296     Total:28987      MisBP:0   MisRate:0.00%    MPKI:0.00
PC:16294     Total:28987      MisBP:0   MisRate:0.00%    MPKI:0.00
PC:16292     Total:28987      MisBP:0   MisRate:0.00%    MPKI:0.00
PC:1631c     Total:29003      MisBP:0   MisRate:0.00%    MPKI:0.00
PC:1628e     Total:28950      MisBP:0   MisRate:0.00%    MPKI:0.00
PC:1628c     Total:28950      MisBP:0   MisRate:0.00%    MPKI:0.00
PC:1628a     Total:28931      MisBP:0   MisRate:0.00%    MPKI:0.00
PC:16288     Total:28931      MisBP:0   MisRate:0.00%    MPKI:0.00
PC:16284     Total:28931      MisBP:0   MisRate:0.00%    MPKI:0.00
PC:16282     Total:28931      MisBP:0   MisRate:0.00%    MPKI:0.00
PC:16280     Total:28932      MisBP:0   MisRate:0.00%    MPKI:0.00
PC:1627e     Total:29060      MisBP:0   MisRate:0.00%    MPKI:0.00
PC:1627c     Total:29066      MisBP:0   MisRate:0.00%    MPKI:0.00
PC:1627a     Total:29066      MisBP:0   MisRate:0.00%    MPKI:0.00
PC:18b52     Total:18761      MisBP:0   MisRate:0.00%    MPKI:0.00
PC:163a4     Total:28956      MisBP:0   MisRate:0.00%    MPKI:0.00
PC:18b60     Total:19448      MisBP:0   MisRate:0.00%    MPKI:0.00
PC:163a2     Total:28956      MisBP:0   MisRate:0.00%    MPKI:0.00
PC:18b5e     Total:9724      MisBP:0   MisRate:0.00%    MPKI:0.00
PC:163a0     Total:28956      MisBP:0   MisRate:0.00%    MPKI:0.00
PC:18b5c     Total:8084      MisBP:0   MisRate:0.00%    MPKI:0.00
PC:1639e     Total:28956      MisBP:0   MisRate:0.00%    MPKI:0.00
PC:1639a     Total:28956      MisBP:0   MisRate:0.00%    MPKI:0.00
PC:18b56     Total:9380      MisBP:0   MisRate:0.00%    MPKI:0.00
PC:16398     Total:28956      MisBP:0   MisRate:0.00%    MPKI:0.00
PC:16396     Total:28956      MisBP:0   MisRate:0.00%    MPKI:0.00
PC:163a6     Total:28955      MisBP:0   MisRate:0.00%    MPKI:0.00
PC:16394     Total:29002      MisBP:0   MisRate:0.00%    MPKI:0.00
PC:18b4e     Total:28      MisBP:0   MisRate:0.00%    MPKI:0.00
PC:16390     Total:29002      MisBP:0   MisRate:0.00%    MPKI:0.00
PC:18b4c     Total:28      MisBP:0   MisRate:0.00%    MPKI:0.00
PC:1638e     Total:29002      MisBP:0   MisRate:0.00%    MPKI:0.00
PC:18b4a     Total:28      MisBP:0   MisRate:0.00%    MPKI:0.00
PC:1638c     Total:29002      MisBP:0   MisRate:0.00%    MPKI:0.00
PC:18b46     Total:28      MisBP:0   MisRate:0.00%    MPKI:0.00
PC:16388     Total:28913      MisBP:0   MisRate:0.00%    MPKI:0.00
PC:16384     Total:28913      MisBP:0   MisRate:0.00%    MPKI:0.00
PC:163b6     Total:28963      MisBP:0   MisRate:0.00%    MPKI:0.00
PC:163c6     Total:29005      MisBP:0   MisRate:0.00%    MPKI:0.00
PC:18b82     Total:28      MisBP:0   MisRate:0.00%    MPKI:0.00
PC:163c4     Total:29010      MisBP:0   MisRate:0.00%    MPKI:0.00
PC:18b80     Total:28      MisBP:0   MisRate:0.00%    MPKI:0.00
PC:163c2     Total:28984      MisBP:0   MisRate:0.00%    MPKI:0.00
PC:18b7c     Total:31      MisBP:0   MisRate:0.00%    MPKI:0.00
PC:163be     Total:28984      MisBP:0   MisRate:0.00%    MPKI:0.00
PC:163ba     Total:29079      MisBP:0   MisRate:0.00%    MPKI:0.00
PC:18b76     Total:31      MisBP:0   MisRate:0.00%    MPKI:0.00
PC:163b8     Total:29079      MisBP:0   MisRate:0.00%    MPKI:0.00
PC:18b74     Total:31      MisBP:0   MisRate:0.00%    MPKI:0.00
PC:18b40     Total:28      MisBP:0   MisRate:0.00%    MPKI:0.00
PC:18b70     Total:31      MisBP:0   MisRate:0.00%    MPKI:0.00
PC:163b2     Total:28963      MisBP:0   MisRate:0.00%    MPKI:0.00
PC:18b6c     Total:31      MisBP:0   MisRate:0.00%    MPKI:0.00
PC:163ae     Total:28963      MisBP:0   MisRate:0.00%    MPKI:0.00
PC:18b6a     Total:31      MisBP:0   MisRate:0.00%    MPKI:0.00
PC:163ac     Total:28963      MisBP:0   MisRate:0.00%    MPKI:0.00
PC:18b68     Total:31      MisBP:0   MisRate:0.00%    MPKI:0.00
PC:163aa     Total:28998      MisBP:0   MisRate:0.00%    MPKI:0.00
PC:18b66     Total:31      MisBP:0   MisRate:0.00%    MPKI:0.00
PC:163a8     Total:28942      MisBP:0   MisRate:0.00%    MPKI:0.00
PC:16338     Total:28960      MisBP:0   MisRate:0.00%    MPKI:0.00
PC:16352     Total:29006      MisBP:0   MisRate:0.00%    MPKI:0.00
PC:16350     Total:29013      MisBP:0   MisRate:0.00%    MPKI:0.00
PC:1634e     Total:28955      MisBP:0   MisRate:0.00%    MPKI:0.00
PC:1634c     Total:28955      MisBP:0   MisRate:0.00%    MPKI:0.00
PC:1634a     Total:28955      MisBP:0   MisRate:0.00%    MPKI:0.00
PC:16348     Total:28955      MisBP:0   MisRate:0.00%    MPKI:0.00
PC:16346     Total:28955      MisBP:0   MisRate:0.00%    MPKI:0.00
PC:16344     Total:28913      MisBP:0   MisRate:0.00%    MPKI:0.00
PC:16340     Total:28913      MisBP:0   MisRate:0.00%    MPKI:0.00
PC:1633e     Total:28959      MisBP:0   MisRate:0.00%    MPKI:0.00
PC:1633c     Total:28960      MisBP:0   MisRate:0.00%    MPKI:0.00
PC:16354     Total:29003      MisBP:0   MisRate:0.00%    MPKI:0.00
PC:16334     Total:28960      MisBP:0   MisRate:0.00%    MPKI:0.00
PC:16332     Total:28960      MisBP:0   MisRate:0.00%    MPKI:0.00
PC:1632e     Total:28960      MisBP:0   MisRate:0.00%    MPKI:0.00
PC:1632c     Total:28961      MisBP:0   MisRate:0.00%    MPKI:0.00
PC:1632a     Total:29080      MisBP:0   MisRate:0.00%    MPKI:0.00
PC:16328     Total:29079      MisBP:0   MisRate:0.00%    MPKI:0.00
PC:16326     Total:29037      MisBP:0   MisRate:0.00%    MPKI:0.00
PC:16324     Total:29037      MisBP:0   MisRate:0.00%    MPKI:0.00
PC:16322     Total:29040      MisBP:0   MisRate:0.00%    MPKI:0.00
PC:1631e     Total:29003      MisBP:0   MisRate:0.00%    MPKI:0.00
PC:16370     Total:28914      MisBP:0   MisRate:0.00%    MPKI:0.00
PC:16382     Total:28913      MisBP:0   MisRate:0.00%    MPKI:0.00
PC:18b3e     Total:32      MisBP:0   MisRate:0.00%    MPKI:0.00
PC:16380     Total:28912      MisBP:0   MisRate:0.00%    MPKI:0.00
PC:1637e     Total:28982      MisBP:0   MisRate:0.00%    MPKI:0.00
PC:18b3a     Total:32      MisBP:0   MisRate:0.00%    MPKI:0.00
PC:1637c     Total:28914      MisBP:0   MisRate:0.00%    MPKI:0.00
PC:18b36     Total:32      MisBP:0   MisRate:0.00%    MPKI:0.00
PC:16378     Total:28914      MisBP:0   MisRate:0.00%    MPKI:0.00
PC:18b32     Total:37      MisBP:0   MisRate:0.00%    MPKI:0.00
PC:16374     Total:28914      MisBP:0   MisRate:0.00%    MPKI:0.00
PC:18c94     Total:11784      MisBP:0   MisRate:0.00%    MPKI:0.00
PC:18b2c     Total:37      MisBP:0   MisRate:0.00%    MPKI:0.00
PC:1636e     Total:28914      MisBP:0   MisRate:0.00%    MPKI:0.00
PC:18b28     Total:371      MisBP:0   MisRate:0.00%    MPKI:0.00
PC:1636a     Total:28919      MisBP:0   MisRate:0.00%    MPKI:0.00
PC:16366     Total:29031      MisBP:0   MisRate:0.00%    MPKI:0.00
PC:16364     Total:29031      MisBP:0   MisRate:0.00%    MPKI:0.00
PC:16362     Total:29031      MisBP:0   MisRate:0.00%    MPKI:0.00
PC:1635e     Total:29003      MisBP:0   MisRate:0.00%    MPKI:0.00
PC:1635c     Total:29003      MisBP:0   MisRate:0.00%    MPKI:0.00
PC:16358     Total:29003      MisBP:0   MisRate:0.00%    MPKI:0.00
PC:1561e     Total:28847      MisBP:0   MisRate:0.00%    MPKI:0.00
PC:15310     Total:10      MisBP:0   MisRate:0.00%    MPKI:0.00
PC:12e6a     Total:215673      MisBP:0   MisRate:0.00%    MPKI:0.00
PC:12e68     Total:215673      MisBP:0   MisRate:0.00%    MPKI:0.00
PC:15626     Total:28899      MisBP:0   MisRate:0.00%    MPKI:0.00
PC:29414     Total:693      MisBP:0   MisRate:0.00%    MPKI:0.00
PC:12e66     Total:58      MisBP:0   MisRate:0.00%    MPKI:0.00
PC:15624     Total:28899      MisBP:0   MisRate:0.00%    MPKI:0.00
PC:2972c     Total:177      MisBP:0   MisRate:0.00%    MPKI:0.00
PC:12e64     Total:58      MisBP:0   MisRate:0.00%    MPKI:0.00
PC:15622     Total:28900      MisBP:0   MisRate:0.00%    MPKI:0.00
PC:12e60     Total:58      MisBP:0   MisRate:0.00%    MPKI:0.00
PC:29418     Total:693      MisBP:0   MisRate:0.00%    MPKI:0.00
PC:1561a     Total:28847      MisBP:0   MisRate:0.00%    MPKI:0.00
PC:12e5a     Total:155      MisBP:0   MisRate:0.00%    MPKI:0.00
PC:29408     Total:693      MisBP:0   MisRate:0.00%    MPKI:0.00
PC:15300     Total:1600      MisBP:0   MisRate:0.00%    MPKI:0.00
PC:15616     Total:28847      MisBP:0   MisRate:0.00%    MPKI:0.00
PC:152fc     Total:1610      MisBP:0   MisRate:0.00%    MPKI:0.00
PC:12e54     Total:110      MisBP:0   MisRate:0.00%    MPKI:0.00
PC:15612     Total:28848      MisBP:0   MisRate:0.00%    MPKI:0.00
PC:12e52     Total:145      MisBP:0   MisRate:0.00%    MPKI:0.00
PC:29400     Total:159      MisBP:0   MisRate:0.00%    MPKI:0.00
PC:2973c     Total:175      MisBP:0   MisRate:0.00%    MPKI:0.00
PC:29428     Total:681      MisBP:0   MisRate:0.00%    MPKI:0.00
PC:15320     Total:10      MisBP:0   MisRate:0.00%    MPKI:0.00
PC:12e7a     Total:215669      MisBP:0   MisRate:0.00%    MPKI:0.00
PC:15638     Total:28980      MisBP:0   MisRate:0.00%    MPKI:0.00
PC:29740     Total:145      MisBP:0   MisRate:0.00%    MPKI:0.00
PC:12e78     Total:215669      MisBP:0   MisRate:0.00%    MPKI:0.00
PC:15636     Total:28981      MisBP:0   MisRate:0.00%    MPKI:0.00
PC:29424     Total:693      MisBP:0   MisRate:0.00%    MPKI:0.00
PC:1531c     Total:10      MisBP:0   MisRate:0.00%    MPKI:0.00
PC:12e76     Total:215669      MisBP:0   MisRate:0.00%    MPKI:0.00
PC:15634     Total:28981      MisBP:0   MisRate:0.00%    MPKI:0.00
PC:152f8     Total:1611      MisBP:0   MisRate:0.00%    MPKI:0.00
PC:29420     Total:693      MisBP:0   MisRate:0.00%    MPKI:0.00
PC:15318     Total:10      MisBP:0   MisRate:0.00%    MPKI:0.00
PC:12e72     Total:215668      MisBP:0   MisRate:0.00%    MPKI:0.00
PC:15630     Total:28897      MisBP:0   MisRate:0.00%    MPKI:0.00
PC:29738     Total:175      MisBP:0   MisRate:0.00%    MPKI:0.00
PC:2941c     Total:693      MisBP:0   MisRate:0.00%    MPKI:0.00
PC:15314     Total:10      MisBP:0   MisRate:0.00%    MPKI:0.00
PC:1562c     Total:28897      MisBP:0   MisRate:0.00%    MPKI:0.00
PC:29734     Total:177      MisBP:0   MisRate:0.00%    MPKI:0.00
PC:1562a     Total:28897      MisBP:0   MisRate:0.00%    MPKI:0.00
PC:152c4     Total:13      MisBP:0   MisRate:0.00%    MPKI:0.00
PC:152d8     Total:12      MisBP:0   MisRate:0.00%    MPKI:0.00
PC:155ee     Total:28714      MisBP:0   MisRate:0.00%    MPKI:0.00
PC:293dc     Total:112      MisBP:0   MisRate:0.00%    MPKI:0.00
PC:152d4     Total:12      MisBP:0   MisRate:0.00%    MPKI:0.00
PC:293d8     Total:56      MisBP:0   MisRate:0.00%    MPKI:0.00
PC:293d4     Total:56      MisBP:0   MisRate:0.00%    MPKI:0.00
PC:152cc     Total:13      MisBP:0   MisRate:0.00%    MPKI:0.00
PC:155e2     Total:28677      MisBP:0   MisRate:0.00%    MPKI:0.00
PC:152c8     Total:13      MisBP:0   MisRate:0.00%    MPKI:0.00
PC:155de     Total:28677      MisBP:0   MisRate:0.00%    MPKI:0.00
PC:293cc     Total:158      MisBP:0   MisRate:0.00%    MPKI:0.00
PC:293e0     Total:112      MisBP:0   MisRate:0.00%    MPKI:0.00
PC:155da     Total:28677      MisBP:0   MisRate:0.00%    MPKI:0.00
PC:155d6     Total:28634      MisBP:0   MisRate:0.00%    MPKI:0.00
PC:155d2     Total:28635      MisBP:0   MisRate:0.00%    MPKI:0.00
PC:293c0     Total:158      MisBP:0   MisRate:0.00%    MPKI:0.00
PC:155ce     Total:28635      MisBP:0   MisRate:0.00%    MPKI:0.00
PC:293bc     Total:163      MisBP:0   MisRate:0.00%    MPKI:0.00
PC:155ca     Total:28635      MisBP:0   MisRate:0.00%    MPKI:0.00
PC:293b8     Total:163      MisBP:0   MisRate:0.00%    MPKI:0.00
PC:152b0     Total:7      MisBP:0   MisRate:0.00%    MPKI:0.00
PC:293b4     Total:326      MisBP:0   MisRate:0.00%    MPKI:0.00
PC:15602     Total:28757      MisBP:0   MisRate:0.00%    MPKI:0.00
PC:12e4e     Total:145      MisBP:0   MisRate:0.00%    MPKI:0.00
PC:293fc     Total:160      MisBP:0   MisRate:0.00%    MPKI:0.00
PC:152f4     Total:1612      MisBP:0   MisRate:0.00%    MPKI:0.00
PC:12e4a     Total:145      MisBP:0   MisRate:0.00%    MPKI:0.00
PC:293f8     Total:160      MisBP:0   MisRate:0.00%    MPKI:0.00
PC:12e48     Total:145      MisBP:0   MisRate:0.00%    MPKI:0.00
PC:15606     Total:28757      MisBP:0   MisRate:0.00%    MPKI:0.00
PC:12e46     Total:145      MisBP:0   MisRate:0.00%    MPKI:0.00
PC:293f4     Total:112      MisBP:0   MisRate:0.00%    MPKI:0.00
PC:152ec     Total:278      MisBP:0   MisRate:0.00%    MPKI:0.00
PC:1563a     Total:28980      MisBP:0   MisRate:0.00%    MPKI:0.00
PC:12e42     Total:145      MisBP:0   MisRate:0.00%    MPKI:0.00
PC:293f0     Total:112      MisBP:0   MisRate:0.00%    MPKI:0.00
PC:12e40     Total:145      MisBP:0   MisRate:0.00%    MPKI:0.00
PC:155fe     Total:28764      MisBP:0   MisRate:0.00%    MPKI:0.00
PC:155fa     Total:28714      MisBP:0   MisRate:0.00%    MPKI:0.00
PC:12e38     Total:145      MisBP:0   MisRate:0.00%    MPKI:0.00
PC:155f6     Total:28714      MisBP:0   MisRate:0.00%    MPKI:0.00
PC:293e4     Total:56      MisBP:0   MisRate:0.00%    MPKI:0.00
PC:152dc     Total:12      MisBP:0   MisRate:0.00%    MPKI:0.00
PC:155f2     Total:28714      MisBP:0   MisRate:0.00%    MPKI:0.00
PC:1566c     Total:29145      MisBP:0   MisRate:0.00%    MPKI:0.00
PC:12eb6     Total:24      MisBP:0   MisRate:0.00%    MPKI:0.00
PC:12eb4     Total:24      MisBP:0   MisRate:0.00%    MPKI:0.00
PC:15672     Total:29143      MisBP:0   MisRate:0.00%    MPKI:0.00
PC:29460     Total:184      MisBP:0   MisRate:0.00%    MPKI:0.00
PC:15358     Total:4      MisBP:0   MisRate:0.00%    MPKI:0.00
PC:12eb2     Total:24      MisBP:0   MisRate:0.00%    MPKI:0.00
PC:15670     Total:29143      MisBP:0   MisRate:0.00%    MPKI:0.00
PC:29778     Total:145      MisBP:0   MisRate:0.00%    MPKI:0.00
PC:1566e     Total:29143      MisBP:0   MisRate:0.00%    MPKI:0.00
PC:2945c     Total:184      MisBP:0   MisRate:0.00%    MPKI:0.00
PC:15354     Total:4      MisBP:0   MisRate:0.00%    MPKI:0.00
PC:29464     Total:184      MisBP:0   MisRate:0.00%    MPKI:0.00
PC:29774     Total:145      MisBP:0   MisRate:0.00%    MPKI:0.00
PC:12eac     Total:52      MisBP:0   MisRate:0.00%    MPKI:0.00
PC:1566a     Total:29145      MisBP:0   MisRate:0.00%    MPKI:0.00
PC:12ea8     Total:52      MisBP:0   MisRate:0.00%    MPKI:0.00
PC:15666     Total:29098      MisBP:0   MisRate:0.00%    MPKI:0.00
PC:12ea4     Total:52      MisBP:0   MisRate:0.00%    MPKI:0.00
PC:15662     Total:29098      MisBP:0   MisRate:0.00%    MPKI:0.00
PC:29450     Total:636      MisBP:0   MisRate:0.00%    MPKI:0.00
PC:15348     Total:4      MisBP:0   MisRate:0.00%    MPKI:0.00
PC:12ea2     Total:52      MisBP:0   MisRate:0.00%    MPKI:0.00
PC:12ec0     Total:24      MisBP:0   MisRate:0.00%    MPKI:0.00
PC:1568e     Total:29234      MisBP:0   MisRate:0.00%    MPKI:0.00
PC:12ecc     Total:24      MisBP:0   MisRate:0.00%    MPKI:0.00
PC:1568a     Total:29196      MisBP:0   MisRate:0.00%    MPKI:0.00
PC:15686     Total:29196      MisBP:0   MisRate:0.00%    MPKI:0.00
PC:29474     Total:42      MisBP:0   MisRate:0.00%    MPKI:0.00
PC:12ec6     Total:24      MisBP:0   MisRate:0.00%    MPKI:0.00
PC:15682     Total:29196      MisBP:0   MisRate:0.00%    MPKI:0.00
PC:15368     Total:4      MisBP:0   MisRate:0.00%    MPKI:0.00
PC:12ec2     Total:24      MisBP:0   MisRate:0.00%    MPKI:0.00
PC:15680     Total:29196      MisBP:0   MisRate:0.00%    MPKI:0.00
PC:29788     Total:145      MisBP:0   MisRate:0.00%    MPKI:0.00
PC:15660     Total:29098      MisBP:0   MisRate:0.00%    MPKI:0.00
PC:1567e     Total:29209      MisBP:0   MisRate:0.00%    MPKI:0.00
PC:2946c     Total:184      MisBP:0   MisRate:0.00%    MPKI:0.00
PC:15364     Total:4      MisBP:0   MisRate:0.00%    MPKI:0.00
PC:1567c     Total:29213      MisBP:0   MisRate:0.00%    MPKI:0.00
PC:29784     Total:145      MisBP:0   MisRate:0.00%    MPKI:0.00
PC:29468     Total:184      MisBP:0   MisRate:0.00%    MPKI:0.00
PC:15360     Total:4      MisBP:0   MisRate:0.00%    MPKI:0.00
PC:12eba     Total:25      MisBP:0   MisRate:0.00%    MPKI:0.00
PC:15678     Total:29142      MisBP:0   MisRate:0.00%    MPKI:0.00
PC:29780     Total:145      MisBP:0   MisRate:0.00%    MPKI:0.00
PC:15646     Total:29014      MisBP:0   MisRate:0.00%    MPKI:0.00
PC:12e8e     Total:215612      MisBP:0   MisRate:0.00%    MPKI:0.00
PC:1564c     Total:29014      MisBP:0   MisRate:0.00%    MPKI:0.00
PC:29754     Total:145      MisBP:0   MisRate:0.00%    MPKI:0.00
PC:12e8c     Total:215612      MisBP:0   MisRate:0.00%    MPKI:0.00
PC:1564a     Total:29014      MisBP:0   MisRate:0.00%    MPKI:0.00
PC:29438     Total:678      MisBP:0   MisRate:0.00%    MPKI:0.00
PC:15330     Total:6      MisBP:0   MisRate:0.00%    MPKI:0.00
PC:12e8a     Total:215612      MisBP:0   MisRate:0.00%    MPKI:0.00
PC:15648     Total:29014      MisBP:0   MisRate:0.00%    MPKI:0.00
PC:29750     Total:145      MisBP:0   MisRate:0.00%    MPKI:0.00
PC:12e88     Total:215612      MisBP:0   MisRate:0.00%    MPKI:0.00
PC:15334     Total:6      MisBP:0   MisRate:0.00%    MPKI:0.00
PC:12e84     Total:215612      MisBP:0   MisRate:0.00%    MPKI:0.00
PC:15642     Total:28975      MisBP:0   MisRate:0.00%    MPKI:0.00
PC:12e80     Total:215612      MisBP:0   MisRate:0.00%    MPKI:0.00
PC:1563e     Total:28975      MisBP:0   MisRate:0.00%    MPKI:0.00
PC:2942c     Total:681      MisBP:0   MisRate:0.00%    MPKI:0.00
PC:15324     Total:10      MisBP:0   MisRate:0.00%    MPKI:0.00
PC:12e7e     Total:215634      MisBP:0   MisRate:0.00%    MPKI:0.00
PC:1563c     Total:28979      MisBP:0   MisRate:0.00%    MPKI:0.00
PC:29744     Total:145      MisBP:0   MisRate:0.00%    MPKI:0.00
PC:12e7c     Total:215628      MisBP:0   MisRate:0.00%    MPKI:0.00
PC:29444     Total:639      MisBP:0   MisRate:0.00%    MPKI:0.00
PC:29768     Total:145      MisBP:0   MisRate:0.00%    MPKI:0.00
PC:1565e     Total:29098      MisBP:0   MisRate:0.00%    MPKI:0.00
PC:2944c     Total:636      MisBP:0   MisRate:0.00%    MPKI:0.00
PC:12e9e     Total:215675      MisBP:0   MisRate:0.00%    MPKI:0.00
PC:1565c     Total:29098      MisBP:0   MisRate:0.00%    MPKI:0.00
PC:29764     Total:145      MisBP:0   MisRate:0.00%    MPKI:0.00
PC:12e9c     Total:215675      MisBP:0   MisRate:0.00%    MPKI:0.00
PC:1565a     Total:29098      MisBP:0   MisRate:0.00%    MPKI:0.00
PC:29448     Total:636      MisBP:0   MisRate:0.00%    MPKI:0.00
PC:15340     Total:4      MisBP:0   MisRate:0.00%    MPKI:0.00
PC:152ac     Total:7      MisBP:0   MisRate:0.00%    MPKI:0.00
PC:12e96     Total:215612      MisBP:0   MisRate:0.00%    MPKI:0.00
PC:15654     Total:29014      MisBP:0   MisRate:0.00%    MPKI:0.00
PC:2975c     Total:145      MisBP:0   MisRate:0.00%    MPKI:0.00
PC:29440     Total:639      MisBP:0   MisRate:0.00%    MPKI:0.00
PC:12e92     Total:215612      MisBP:0   MisRate:0.00%    MPKI:0.00
PC:15650     Total:29014      MisBP:0   MisRate:0.00%    MPKI:0.00
PC:29758     Total:145      MisBP:0   MisRate:0.00%    MPKI:0.00
PC:12e90     Total:215612      MisBP:0   MisRate:0.00%    MPKI:0.00
PC:1564e     Total:29014      MisBP:0   MisRate:0.00%    MPKI:0.00
PC:2943c     Total:678      MisBP:0   MisRate:0.00%    MPKI:0.00
PC:18cc8     Total:52137      MisBP:0   MisRate:0.00%    MPKI:0.00
PC:16518     Total:29095      MisBP:0   MisRate:0.00%    MPKI:0.00
PC:18cd4     Total:56419      MisBP:0   MisRate:0.00%    MPKI:0.00
PC:16516     Total:29095      MisBP:0   MisRate:0.00%    MPKI:0.00
PC:18cd2     Total:56487      MisBP:0   MisRate:0.00%    MPKI:0.00
PC:16514     Total:29056      MisBP:0   MisRate:0.00%    MPKI:0.00
PC:16512     Total:29056      MisBP:0   MisRate:0.00%    MPKI:0.00
PC:18cce     Total:51975      MisBP:0   MisRate:0.00%    MPKI:0.00
PC:16510     Total:29097      MisBP:0   MisRate:0.00%    MPKI:0.00
PC:1650e     Total:29097      MisBP:0   MisRate:0.00%    MPKI:0.00
PC:18cca     Total:52002      MisBP:0   MisRate:0.00%    MPKI:0.00
PC:1650c     Total:29098      MisBP:0   MisRate:0.00%    MPKI:0.00
PC:1651a     Total:29133      MisBP:0   MisRate:0.00%    MPKI:0.00
PC:1650a     Total:29118      MisBP:0   MisRate:0.00%    MPKI:0.00
PC:18cc6     Total:52371      MisBP:0   MisRate:0.00%    MPKI:0.00
PC:16508     Total:29127      MisBP:0   MisRate:0.00%    MPKI:0.00
PC:18cc2     Total:234      MisBP:0   MisRate:0.00%    MPKI:0.00
PC:16504     Total:29088      MisBP:0   MisRate:0.00%    MPKI:0.00
PC:16502     Total:29088      MisBP:0   MisRate:0.00%    MPKI:0.00
PC:18cbe     Total:234      MisBP:0   MisRate:0.00%    MPKI:0.00
PC:16500     Total:29089      MisBP:0   MisRate:0.00%    MPKI:0.00
PC:18cba     Total:238      MisBP:0   MisRate:0.00%    MPKI:0.00
PC:164fc     Total:29162      MisBP:0   MisRate:0.00%    MPKI:0.00
PC:1652a     Total:29173      MisBP:0   MisRate:0.00%    MPKI:0.00
PC:18cf6     Total:54893      MisBP:0   MisRate:0.00%    MPKI:0.00
PC:16538     Total:29065      MisBP:0   MisRate:0.00%    MPKI:0.00
PC:39706     Total:2      MisBP:0   MisRate:0.00%    MPKI:0.00
PC:18cf4     Total:55211      MisBP:0   MisRate:0.00%    MPKI:0.00
PC:16536     Total:29171      MisBP:0   MisRate:0.00%    MPKI:0.00
PC:18cf0     Total:55590      MisBP:0   MisRate:0.00%    MPKI:0.00
PC:16532     Total:29171      MisBP:0   MisRate:0.00%    MPKI:0.00
PC:39700     Total:2      MisBP:0   MisRate:0.00%    MPKI:0.00
PC:18cee     Total:55843      MisBP:0   MisRate:0.00%    MPKI:0.00
PC:16530     Total:29172      MisBP:0   MisRate:0.00%    MPKI:0.00
PC:1652e     Total:29173      MisBP:0   MisRate:0.00%    MPKI:0.00
PC:164fa     Total:29165      MisBP:0   MisRate:0.00%    MPKI:0.00
PC:16526     Total:29173      MisBP:0   MisRate:0.00%    MPKI:0.00
PC:18ce2     Total:56031      MisBP:0   MisRate:0.00%    MPKI:0.00
PC:16524     Total:29173      MisBP:0   MisRate:0.00%    MPKI:0.00
PC:16522     Total:29173      MisBP:0   MisRate:0.00%    MPKI:0.00
PC:18cde     Total:56054      MisBP:0   MisRate:0.00%    MPKI:0.00
PC:16520     Total:29213      MisBP:0   MisRate:0.00%    MPKI:0.00
PC:18cdc     Total:56068      MisBP:0   MisRate:0.00%    MPKI:0.00
PC:1651e     Total:29213      MisBP:0   MisRate:0.00%    MPKI:0.00
PC:18cda     Total:56141      MisBP:0   MisRate:0.00%    MPKI:0.00
PC:1651c     Total:29133      MisBP:0   MisRate:0.00%    MPKI:0.00
PC:164de     Total:29120      MisBP:0   MisRate:0.00%    MPKI:0.00
PC:18be2     Total:68030      MisBP:0   MisRate:0.00%    MPKI:0.00
PC:18ca8     Total:11596      MisBP:0   MisRate:0.00%    MPKI:0.00
PC:164ea     Total:29110      MisBP:0   MisRate:0.00%    MPKI:0.00
PC:1dc22     Total:5      MisBP:0   MisRate:0.00%    MPKI:0.00
PC:18be0     Total:68173      MisBP:0   MisRate:0.00%    MPKI:0.00
PC:164e8     Total:29110      MisBP:0   MisRate:0.00%    MPKI:0.00
PC:164e4     Total:29110      MisBP:0   MisRate:0.00%    MPKI:0.00
PC:1dc1c     Total:10      MisBP:0   MisRate:0.00%    MPKI:0.00
PC:18bda     Total:68588      MisBP:0   MisRate:0.00%    MPKI:0.00
PC:18ca0     Total:11700      MisBP:0   MisRate:0.00%    MPKI:0.00
PC:164e2     Total:29120      MisBP:0   MisRate:0.00%    MPKI:0.00
PC:1dc24     Total:5      MisBP:0   MisRate:0.00%    MPKI:0.00
PC:1dc16     Total:5      MisBP:0   MisRate:0.00%    MPKI:0.00
PC:18bd4     Total:15206      MisBP:0   MisRate:0.00%    MPKI:0.00
PC:18c9a     Total:23570      MisBP:0   MisRate:0.00%    MPKI:0.00
PC:164dc     Total:29120      MisBP:0   MisRate:0.00%    MPKI:0.00
PC:1dc14     Total:5      MisBP:0   MisRate:0.00%    MPKI:0.00
PC:18bd2     Total:15401      MisBP:0   MisRate:0.00%    MPKI:0.00
PC:164da     Total:29120      MisBP:0   MisRate:0.00%    MPKI:0.00
PC:1dc12     Total:10      MisBP:0   MisRate:0.00%    MPKI:0.00
PC:18c96     Total:11787      MisBP:0   MisRate:0.00%    MPKI:0.00
PC:164d8     Total:29112      MisBP:0   MisRate:0.00%    MPKI:0.00
PC:1dc2c     Total:4      MisBP:0   MisRate:0.00%    MPKI:0.00
PC:1dc32     Total:2      MisBP:0   MisRate:0.00%    MPKI:0.00
PC:18bf0     Total:15892      MisBP:0   MisRate:0.00%    MPKI:0.00
PC:18cb6     Total:238      MisBP:0   MisRate:0.00%    MPKI:0.00
PC:164f8     Total:29171      MisBP:0   MisRate:0.00%    MPKI:0.00
PC:1dc30     Total:2      MisBP:0   MisRate:0.00%    MPKI:0.00
PC:18bee     Total:15933      MisBP:0   MisRate:0.00%    MPKI:0.00
PC:18cb4     Total:238      MisBP:0   MisRate:0.00%    MPKI:0.00
PC:164f6     Total:29139      MisBP:0   MisRate:0.00%    MPKI:0.00
PC:18cb2     Total:11546      MisBP:0   MisRate:0.00%    MPKI:0.00
PC:164f4     Total:29102      MisBP:0   MisRate:0.00%    MPKI:0.00
PC:3970a     Total:2      MisBP:0   MisRate:0.00%    MPKI:0.00
PC:18bea     Total:67959      MisBP:0   MisRate:0.00%    MPKI:0.00
PC:18cb0     Total:11555      MisBP:0   MisRate:0.00%    MPKI:0.00
PC:164f2     Total:29103      MisBP:0   MisRate:0.00%    MPKI:0.00
PC:1dc2a     Total:2      MisBP:0   MisRate:0.00%    MPKI:0.00
PC:18cae     Total:11560      MisBP:0   MisRate:0.00%    MPKI:0.00
PC:164f0     Total:29103      MisBP:0   MisRate:0.00%    MPKI:0.00
PC:18cac     Total:11569      MisBP:0   MisRate:0.00%    MPKI:0.00
PC:164ee     Total:29105      MisBP:0   MisRate:0.00%    MPKI:0.00
PC:1dc26     Total:5      MisBP:0   MisRate:0.00%    MPKI:0.00
PC:164ec     Total:29107      MisBP:0   MisRate:0.00%    MPKI:0.00
PC:2936c     Total:4      MisBP:0   MisRate:0.00%    MPKI:0.00
PC:29388     Total:2      MisBP:0   MisRate:0.00%    MPKI:0.00
PC:15596     Total:28521      MisBP:0   MisRate:0.00%    MPKI:0.00
PC:29384     Total:2      MisBP:0   MisRate:0.00%    MPKI:0.00
PC:1527c     Total:9      MisBP:0   MisRate:0.00%    MPKI:0.00
PC:15592     Total:28521      MisBP:0   MisRate:0.00%    MPKI:0.00
PC:1558e     Total:28521      MisBP:0   MisRate:0.00%    MPKI:0.00
PC:1558a     Total:28521      MisBP:0   MisRate:0.00%    MPKI:0.00
PC:29378     Total:4      MisBP:0   MisRate:0.00%    MPKI:0.00
PC:15270     Total:9      MisBP:0   MisRate:0.00%    MPKI:0.00
PC:29374     Total:4      MisBP:0   MisRate:0.00%    MPKI:0.00
PC:29370     Total:4      MisBP:0   MisRate:0.00%    MPKI:0.00
PC:1559a     Total:28518      MisBP:0   MisRate:0.00%    MPKI:0.00
PC:15264     Total:9      MisBP:0   MisRate:0.00%    MPKI:0.00
PC:1557a     Total:28523      MisBP:0   MisRate:0.00%    MPKI:0.00
PC:29368     Total:4      MisBP:0   MisRate:0.00%    MPKI:0.00
PC:15260     Total:9      MisBP:0   MisRate:0.00%    MPKI:0.00
PC:29364     Total:4      MisBP:0   MisRate:0.00%    MPKI:0.00
PC:1525c     Total:9      MisBP:0   MisRate:0.00%    MPKI:0.00
PC:15572     Total:28522      MisBP:0   MisRate:0.00%    MPKI:0.00
PC:154ba     Total:153      MisBP:0   MisRate:0.00%    MPKI:0.00
PC:154a6     Total:8      MisBP:0   MisRate:0.00%    MPKI:0.00
PC:1549e     Total:8      MisBP:0   MisRate:0.00%    MPKI:0.00
PC:15294     Total:12      MisBP:0   MisRate:0.00%    MPKI:0.00
PC:293b0     Total:1      MisBP:0   MisRate:0.00%    MPKI:0.00
PC:155be     Total:28580      MisBP:0   MisRate:0.00%    MPKI:0.00
PC:293ac     Total:1      MisBP:0   MisRate:0.00%    MPKI:0.00
PC:152a4     Total:11      MisBP:0   MisRate:0.00%    MPKI:0.00
PC:155ba     Total:28580      MisBP:0   MisRate:0.00%    MPKI:0.00
PC:293a8     Total:2      MisBP:0   MisRate:0.00%    MPKI:0.00
PC:152a0     Total:11      MisBP:0   MisRate:0.00%    MPKI:0.00
PC:155b6     Total:28580      MisBP:0   MisRate:0.00%    MPKI:0.00
PC:155b2     Total:28562      MisBP:0   MisRate:0.00%    MPKI:0.00
PC:155ae     Total:28562      MisBP:0   MisRate:0.00%    MPKI:0.00
PC:2939c     Total:1      MisBP:0   MisRate:0.00%    MPKI:0.00
PC:1549a     Total:8      MisBP:0   MisRate:0.00%    MPKI:0.00
PC:155aa     Total:28563      MisBP:0   MisRate:0.00%    MPKI:0.00
PC:29398     Total:2      MisBP:0   MisRate:0.00%    MPKI:0.00
PC:15290     Total:322      MisBP:0   MisRate:0.00%    MPKI:0.00
PC:155a6     Total:28563      MisBP:0   MisRate:0.00%    MPKI:0.00
PC:29394     Total:2      MisBP:0   MisRate:0.00%    MPKI:0.00
PC:1528c     Total:322      MisBP:0   MisRate:0.00%    MPKI:0.00
PC:29390     Total:1      MisBP:0   MisRate:0.00%    MPKI:0.00
PC:15288     Total:644      MisBP:0   MisRate:0.00%    MPKI:0.00
PC:2938c     Total:2      MisBP:0   MisRate:0.00%    MPKI:0.00
PC:15284     Total:315      MisBP:0   MisRate:0.00%    MPKI:0.00
PC:3971e     Total:2      MisBP:0   MisRate:0.00%    MPKI:0.00
PC:3972c     Total:2      MisBP:0   MisRate:0.00%    MPKI:0.00
PC:18d18     Total:12022      MisBP:0   MisRate:0.00%    MPKI:0.00
PC:1655a     Total:1      MisBP:0   MisRate:0.00%    MPKI:0.00
PC:18d14     Total:12062      MisBP:0   MisRate:0.00%    MPKI:0.00
PC:16556     Total:1      MisBP:0   MisRate:0.00%    MPKI:0.00
PC:39724     Total:2      MisBP:0   MisRate:0.00%    MPKI:0.00
PC:18d12     Total:12065      MisBP:0   MisRate:0.00%    MPKI:0.00
PC:16554     Total:1      MisBP:0   MisRate:0.00%    MPKI:0.00
PC:39722     Total:2      MisBP:0   MisRate:0.00%    MPKI:0.00
PC:18d0e     Total:12067      MisBP:0   MisRate:0.00%    MPKI:0.00
PC:16550     Total:28987      MisBP:0   MisRate:0.00%    MPKI:0.00
PC:1655e     Total:1      MisBP:0   MisRate:0.00%    MPKI:0.00
PC:1654c     Total:28997      MisBP:0   MisRate:0.00%    MPKI:0.00
PC:3971a     Total:2      MisBP:0   MisRate:0.00%    MPKI:0.00
PC:16548     Total:28997      MisBP:0   MisRate:0.00%    MPKI:0.00
PC:39716     Total:2      MisBP:0   MisRate:0.00%    MPKI:0.00
PC:18d02     Total:12071      MisBP:0   MisRate:0.00%    MPKI:0.00
PC:16544     Total:28997      MisBP:0   MisRate:0.00%    MPKI:0.00
PC:16540     Total:28997      MisBP:0   MisRate:0.00%    MPKI:0.00
PC:3970e     Total:2      MisBP:0   MisRate:0.00%    MPKI:0.00
PC:18cfa     Total:54009      MisBP:0   MisRate:0.00%    MPKI:0.00
PC:1653c     Total:29065      MisBP:0   MisRate:0.00%    MPKI:0.00
PC:3973a     Total:2      MisBP:0   MisRate:0.00%    MPKI:0.00
PC:15496     Total:28527      MisBP:0   MisRate:0.00%    MPKI:0.00
PC:15492     Total:28528      MisBP:0   MisRate:0.00%    MPKI:0.00
PC:1548e     Total:28528      MisBP:0   MisRate:0.00%    MPKI:0.00
PC:15486     Total:28528      MisBP:0   MisRate:0.00%    MPKI:0.00
PC:16572     Total:1      MisBP:0   MisRate:0.00%    MPKI:0.00
PC:18d2e     Total:11828      MisBP:0   MisRate:0.00%    MPKI:0.00
PC:16570     Total:1      MisBP:0   MisRate:0.00%    MPKI:0.00
PC:3973e     Total:1      MisBP:0   MisRate:0.00%    MPKI:0.00
PC:18d2a     Total:11893      MisBP:0   MisRate:0.00%    MPKI:0.00
PC:1656c     Total:1      MisBP:0   MisRate:0.00%    MPKI:0.00
PC:16240     Total:29124      MisBP:0   MisRate:0.00%    MPKI:0.00
PC:1656a     Total:1      MisBP:0   MisRate:0.00%    MPKI:0.00
PC:39738     Total:2      MisBP:0   MisRate:0.00%    MPKI:0.00
PC:18d26     Total:11929      MisBP:0   MisRate:0.00%    MPKI:0.00
PC:16568     Total:1      MisBP:0   MisRate:0.00%    MPKI:0.00
PC:39736     Total:2      MisBP:0   MisRate:0.00%    MPKI:0.00
PC:18d22     Total:11995      MisBP:0   MisRate:0.00%    MPKI:0.00
PC:16564     Total:1      MisBP:0   MisRate:0.00%    MPKI:0.00
PC:39732     Total:2      MisBP:0   MisRate:0.00%    MPKI:0.00
PC:16562     Total:1      MisBP:0   MisRate:0.00%    MPKI:0.00
PC:39730     Total:2      MisBP:0   MisRate:0.00%    MPKI:0.00
PC:15dc2     Total:28961      MisBP:0   MisRate:0.00%    MPKI:0.00
PC:14d18     Total:14446      MisBP:0   MisRate:0.00%    MPKI:0.00
PC:1255a     Total:1      MisBP:0   MisRate:0.00%    MPKI:0.00
PC:15c98     Total:28973      MisBP:0   MisRate:0.00%    MPKI:0.00
PC:14d12     Total:14454      MisBP:0   MisRate:0.00%    MPKI:0.00
PC:12554     Total:1      MisBP:0   MisRate:0.00%    MPKI:0.00
PC:15c92     Total:28996      MisBP:0   MisRate:0.00%    MPKI:0.00
PC:14b64     Total:5      MisBP:0   MisRate:0.00%    MPKI:0.00
PC:15dce     Total:29003      MisBP:0   MisRate:0.00%    MPKI:0.00
PC:15dc8     Total:29003      MisBP:0   MisRate:0.00%    MPKI:0.00
PC:15dc6     Total:29003      MisBP:0   MisRate:0.00%    MPKI:0.00
PC:15dc4     Total:28961      MisBP:0   MisRate:0.00%    MPKI:0.00
PC:15ca0     Total:28973      MisBP:0   MisRate:0.00%    MPKI:0.00
PC:15dbe     Total:29048      MisBP:0   MisRate:0.00%    MPKI:0.00
PC:15dbc     Total:29048      MisBP:0   MisRate:0.00%    MPKI:0.00
PC:14b50     Total:3      MisBP:0   MisRate:0.00%    MPKI:0.00
PC:15dba     Total:29048      MisBP:0   MisRate:0.00%    MPKI:0.00
PC:15db4     Total:29073      MisBP:0   MisRate:0.00%    MPKI:0.00
PC:14b46     Total:3      MisBP:0   MisRate:0.00%    MPKI:0.00
PC:15da4     Total:28969      MisBP:0   MisRate:0.00%    MPKI:0.00
PC:14b36     Total:2      MisBP:0   MisRate:0.00%    MPKI:0.00
PC:14b14     Total:3      MisBP:0   MisRate:0.00%    MPKI:0.00
PC:14dfe     Total:15019      MisBP:0   MisRate:0.00%    MPKI:0.00
PC:15cf4     Total:28966      MisBP:0   MisRate:0.00%    MPKI:0.00
PC:15e10     Total:29405      MisBP:0   MisRate:0.00%    MPKI:0.00
PC:15e06     Total:29350      MisBP:0   MisRate:0.00%    MPKI:0.00
PC:15dea     Total:29193      MisBP:0   MisRate:0.00%    MPKI:0.00
PC:14aaa     Total:2      MisBP:0   MisRate:0.00%    MPKI:0.00
PC:125d6     Total:6      MisBP:0   MisRate:0.00%    MPKI:0.00
PC:14d90     Total:14530      MisBP:0   MisRate:0.00%    MPKI:0.00
PC:125d2     Total:6      MisBP:0   MisRate:0.00%    MPKI:0.00
PC:15d08     Total:29025      MisBP:0   MisRate:0.00%    MPKI:0.00
PC:15d04     Total:28984      MisBP:0   MisRate:0.00%    MPKI:0.00
PC:14a96     Total:3      MisBP:0   MisRate:0.00%    MPKI:0.00
PC:15d00     Total:28979      MisBP:0   MisRate:0.00%    MPKI:0.00
PC:15d7e     Total:29010      MisBP:0   MisRate:0.00%    MPKI:0.00
PC:15ce6     Total:28929      MisBP:0   MisRate:0.00%    MPKI:0.00
PC:14a72     Total:785935      MisBP:0   MisRate:0.00%    MPKI:0.00
PC:15cdc     Total:28999      MisBP:0   MisRate:0.00%    MPKI:0.00
PC:15cd4     Total:28959      MisBP:0   MisRate:0.00%    MPKI:0.00
PC:15cb6     Total:28949      MisBP:0   MisRate:0.00%    MPKI:0.00
PC:15cb0     Total:28949      MisBP:0   MisRate:0.00%    MPKI:0.00
PC:12566     Total:1      MisBP:0   MisRate:0.00%    MPKI:0.00
PC:15ca4     Total:28973      MisBP:0   MisRate:0.00%    MPKI:0.00
PC:14d20     Total:14443      MisBP:0   MisRate:0.00%    MPKI:0.00
PC:12562     Total:1      MisBP:0   MisRate:0.00%    MPKI:0.00
PC:14cf2     Total:14829      MisBP:0   MisRate:0.00%    MPKI:0.00
PC:125cc     Total:6      MisBP:0   MisRate:0.00%    MPKI:0.00
PC:14aa0     Total:12      MisBP:0   MisRate:0.00%    MPKI:0.00
PC:125c8     Total:6      MisBP:0   MisRate:0.00%    MPKI:0.00
PC:15d06     Total:29025      MisBP:0   MisRate:0.00%    MPKI:0.00
PC:3622e     Total:19      MisBP:0   MisRate:0.00%    MPKI:0.00
PC:15e96     Total:28975      MisBP:0   MisRate:0.00%    MPKI:0.00
PC:14cf8     Total:14828      MisBP:0   MisRate:0.00%    MPKI:0.00
PC:15c78     Total:29207      MisBP:0   MisRate:0.00%    MPKI:0.00
PC:14cf6     Total:14829      MisBP:0   MisRate:0.00%    MPKI:0.00
PC:12538     Total:6      MisBP:0   MisRate:0.00%    MPKI:0.00
PC:15c76     Total:29207      MisBP:0   MisRate:0.00%    MPKI:0.00
PC:14d8a     Total:14532      MisBP:0   MisRate:0.00%    MPKI:0.00
PC:12534     Total:6      MisBP:0   MisRate:0.00%    MPKI:0.00
PC:15c72     Total:29343      MisBP:0   MisRate:0.00%    MPKI:0.00
PC:14cf0     Total:14830      MisBP:0   MisRate:0.00%    MPKI:0.00
PC:12532     Total:6      MisBP:0   MisRate:0.00%    MPKI:0.00
PC:14cee     Total:14831      MisBP:0   MisRate:0.00%    MPKI:0.00
PC:12530     Total:6      MisBP:0   MisRate:0.00%    MPKI:0.00
PC:15c6e     Total:29343      MisBP:0   MisRate:0.00%    MPKI:0.00
PC:1252e     Total:6      MisBP:0   MisRate:0.00%    MPKI:0.00
PC:15c6c     Total:29343      MisBP:0   MisRate:0.00%    MPKI:0.00
PC:11e58     Total:300      MisBP:0   MisRate:0.00%    MPKI:0.00
PC:125e4     Total:5      MisBP:0   MisRate:0.00%    MPKI:0.00
PC:15ec4     Total:29014      MisBP:0   MisRate:0.00%    MPKI:0.00
PC:1263e     Total:1      MisBP:0   MisRate:0.00%    MPKI:0.00
PC:14df6     Total:15009      MisBP:0   MisRate:0.00%    MPKI:0.00
PC:12638     Total:1      MisBP:0   MisRate:0.00%    MPKI:0.00
PC:14db6     Total:15017      MisBP:0   MisRate:0.00%    MPKI:0.00
PC:125f8     Total:4      MisBP:0   MisRate:0.00%    MPKI:0.00
PC:15d36     Total:28977      MisBP:0   MisRate:0.00%    MPKI:0.00
PC:125ec     Total:344518      MisBP:0   MisRate:0.00%    MPKI:0.00
PC:14da6     Total:14873      MisBP:0   MisRate:0.00%    MPKI:0.00
PC:125e8     Total:4      MisBP:0   MisRate:0.00%    MPKI:0.00
PC:10e98     Total:102      MisBP:0   MisRate:0.00%    MPKI:0.00
PC:14d9e     Total:14513      MisBP:0   MisRate:0.00%    MPKI:0.00
PC:125e0     Total:5      MisBP:0   MisRate:0.00%    MPKI:0.00
PC:14d98     Total:14513      MisBP:0   MisRate:0.00%    MPKI:0.00
PC:125da     Total:6      MisBP:0   MisRate:0.00%    MPKI:0.00
PC:14d92     Total:14530      MisBP:0   MisRate:0.00%    MPKI:0.00
PC:125d4     Total:6      MisBP:0   MisRate:0.00%    MPKI:0.00
PC:125d0     Total:6      MisBP:0   MisRate:0.00%    MPKI:0.00
PC:15d0e     Total:29024      MisBP:0   MisRate:0.00%    MPKI:0.00
PC:14d8c     Total:14532      MisBP:0   MisRate:0.00%    MPKI:0.00
PC:125ce     Total:6      MisBP:0   MisRate:0.00%    MPKI:0.00
PC:15f26     Total:28986      MisBP:0   MisRate:0.00%    MPKI:0.00
PC:10ef2     Total:105      MisBP:0   MisRate:0.00%    MPKI:0.00
PC:15f32     Total:29019      MisBP:0   MisRate:0.00%    MPKI:0.00
PC:10ef0     Total:105      MisBP:0   MisRate:0.00%    MPKI:0.00
PC:15f30     Total:29019      MisBP:0   MisRate:0.00%    MPKI:0.00
PC:10eee     Total:105      MisBP:0   MisRate:0.00%    MPKI:0.00
PC:15f2e     Total:29019      MisBP:0   MisRate:0.00%    MPKI:0.00
PC:10eec     Total:105      MisBP:0   MisRate:0.00%    MPKI:0.00
PC:15f2a     Total:28980      MisBP:0   MisRate:0.00%    MPKI:0.00
PC:10ee8     Total:116      MisBP:0   MisRate:0.00%    MPKI:0.00
PC:15f28     Total:28980      MisBP:0   MisRate:0.00%    MPKI:0.00
PC:10ee6     Total:116      MisBP:0   MisRate:0.00%    MPKI:0.00
PC:15f34     Total:29060      MisBP:0   MisRate:0.00%    MPKI:0.00
PC:10ee4     Total:116      MisBP:0   MisRate:0.00%    MPKI:0.00
PC:15f22     Total:29004      MisBP:0   MisRate:0.00%    MPKI:0.00
PC:10ee0     Total:116      MisBP:0   MisRate:0.00%    MPKI:0.00
PC:15f1e     Total:29004      MisBP:0   MisRate:0.00%    MPKI:0.00
PC:10edc     Total:3      MisBP:0   MisRate:0.00%    MPKI:0.00
PC:15f1c     Total:29005      MisBP:0   MisRate:0.00%    MPKI:0.00
PC:15f18     Total:29005      MisBP:0   MisRate:0.00%    MPKI:0.00
PC:15f14     Total:29009      MisBP:0   MisRate:0.00%    MPKI:0.00
PC:10ed2     Total:2      MisBP:0   MisRate:0.00%    MPKI:0.00
PC:15f12     Total:29049      MisBP:0   MisRate:0.00%    MPKI:0.00
PC:15f44     Total:29015      MisBP:0   MisRate:0.00%    MPKI:0.00
PC:15f5e     Total:29051      MisBP:0   MisRate:0.00%    MPKI:0.00
PC:15f5c     Total:29051      MisBP:0   MisRate:0.00%    MPKI:0.00
PC:15f5a     Total:29052      MisBP:0   MisRate:0.00%    MPKI:0.00
PC:15f58     Total:29052      MisBP:0   MisRate:0.00%    MPKI:0.00
PC:15f56     Total:28995      MisBP:0   MisRate:0.00%    MPKI:0.00
PC:15f54     Total:29056      MisBP:0   MisRate:0.00%    MPKI:0.00
PC:15f50     Total:29056      MisBP:0   MisRate:0.00%    MPKI:0.00
PC:15f4e     Total:29058      MisBP:0   MisRate:0.00%    MPKI:0.00
PC:15f4c     Total:29057      MisBP:0   MisRate:0.00%    MPKI:0.00
PC:15f4a     Total:29015      MisBP:0   MisRate:0.00%    MPKI:0.00
PC:15f48     Total:29015      MisBP:0   MisRate:0.00%    MPKI:0.00
PC:15f10     Total:29049      MisBP:0   MisRate:0.00%    MPKI:0.00
PC:15f40     Total:29015      MisBP:0   MisRate:0.00%    MPKI:0.00
PC:10efe     Total:721      MisBP:0   MisRate:0.00%    MPKI:0.00
PC:15f3e     Total:29082      MisBP:0   MisRate:0.00%    MPKI:0.00
PC:10efc     Total:104      MisBP:0   MisRate:0.00%    MPKI:0.00
PC:15f3a     Total:29082      MisBP:0   MisRate:0.00%    MPKI:0.00
PC:10ef8     Total:105      MisBP:0   MisRate:0.00%    MPKI:0.00
PC:15f38     Total:29082      MisBP:0   MisRate:0.00%    MPKI:0.00
PC:10ef6     Total:105      MisBP:0   MisRate:0.00%    MPKI:0.00
PC:15f36     Total:29100      MisBP:0   MisRate:0.00%    MPKI:0.00
PC:10ef4     Total:105      MisBP:0   MisRate:0.00%    MPKI:0.00
PC:15ee4     Total:29018      MisBP:0   MisRate:0.00%    MPKI:0.00
PC:10eae     Total:102      MisBP:0   MisRate:0.00%    MPKI:0.00
PC:15eee     Total:29102      MisBP:0   MisRate:0.00%    MPKI:0.00
PC:10eac     Total:102      MisBP:0   MisRate:0.00%    MPKI:0.00
PC:15eec     Total:29060      MisBP:0   MisRate:0.00%    MPKI:0.00
PC:10eaa     Total:102      MisBP:0   MisRate:0.00%    MPKI:0.00
PC:15eea     Total:29060      MisBP:0   MisRate:0.00%    MPKI:0.00
PC:10ea8     Total:102      MisBP:0   MisRate:0.00%    MPKI:0.00
PC:15ee8     Total:29018      MisBP:0   MisRate:0.00%    MPKI:0.00
PC:10ea6     Total:102      MisBP:0   MisRate:0.00%    MPKI:0.00
PC:15ee6     Total:29018      MisBP:0   MisRate:0.00%    MPKI:0.00
PC:10ea4     Total:102      MisBP:0   MisRate:0.00%    MPKI:0.00
PC:15ef0     Total:29089      MisBP:0   MisRate:0.00%    MPKI:0.00
PC:10ea2     Total:102      MisBP:0   MisRate:0.00%    MPKI:0.00
PC:15ee2     Total:29018      MisBP:0   MisRate:0.00%    MPKI:0.00
PC:10ea0     Total:102      MisBP:0   MisRate:0.00%    MPKI:0.00
PC:15ee0     Total:29019      MisBP:0   MisRate:0.00%    MPKI:0.00
PC:10e9e     Total:102      MisBP:0   MisRate:0.00%    MPKI:0.00
PC:15ede     Total:29032      MisBP:0   MisRate:0.00%    MPKI:0.00
PC:10e9c     Total:102      MisBP:0   MisRate:0.00%    MPKI:0.00
PC:15edc     Total:29032      MisBP:0   MisRate:0.00%    MPKI:0.00
PC:10e9a     Total:102      MisBP:0   MisRate:0.00%    MPKI:0.00
PC:15eda     Total:29032      MisBP:0   MisRate:0.00%    MPKI:0.00
PC:10ebe     Total:113      MisBP:0   MisRate:0.00%    MPKI:0.00
PC:10ece     Total:2      MisBP:0   MisRate:0.00%    MPKI:0.00
PC:15f0c     Total:29053      MisBP:0   MisRate:0.00%    MPKI:0.00
PC:10eca     Total:113      MisBP:0   MisRate:0.00%    MPKI:0.00
PC:15f0a     Total:29053      MisBP:0   MisRate:0.00%    MPKI:0.00
PC:15f08     Total:29053      MisBP:0   MisRate:0.00%    MPKI:0.00
PC:10ec6     Total:113      MisBP:0   MisRate:0.00%    MPKI:0.00
PC:15f06     Total:29049      MisBP:0   MisRate:0.00%    MPKI:0.00
PC:15f04     Total:29049      MisBP:0   MisRate:0.00%    MPKI:0.00
PC:10ec2     Total:113      MisBP:0   MisRate:0.00%    MPKI:0.00
PC:15f00     Total:29067      MisBP:0   MisRate:0.00%    MPKI:0.00
PC:11e56     Total:300      MisBP:0   MisRate:0.00%    MPKI:0.00
PC:15efe     Total:29131      MisBP:0   MisRate:0.00%    MPKI:0.00
PC:10ebc     Total:113      MisBP:0   MisRate:0.00%    MPKI:0.00
PC:15efa     Total:29133      MisBP:0   MisRate:0.00%    MPKI:0.00
PC:10eb8     Total:113      MisBP:0   MisRate:0.00%    MPKI:0.00
PC:15ef8     Total:29135      MisBP:0   MisRate:0.00%    MPKI:0.00
PC:10eb6     Total:102      MisBP:0   MisRate:0.00%    MPKI:0.00
PC:15ef6     Total:29135      MisBP:0   MisRate:0.00%    MPKI:0.00
PC:15ef4     Total:29094      MisBP:0   MisRate:0.00%    MPKI:0.00
PC:10eb2     Total:102      MisBP:0   MisRate:0.00%    MPKI:0.00
PC:15ef2     Total:29094      MisBP:0   MisRate:0.00%    MPKI:0.00
PC:121ee     Total:438      MisBP:0   MisRate:0.00%    MPKI:0.00
PC:36230     Total:19      MisBP:0   MisRate:0.00%    MPKI:0.00
PC:29240     Total:108      MisBP:0   MisRate:0.00%    MPKI:0.00
PC:121f8     Total:256      MisBP:0   MisRate:0.00%    MPKI:0.00
PC:12228     Total:49      MisBP:0   MisRate:0.00%    MPKI:0.00
PC:15966     Total:28571      MisBP:0   MisRate:0.00%    MPKI:0.00
PC:121f6     Total:256      MisBP:0   MisRate:0.00%    MPKI:0.00
PC:121f4     Total:256      MisBP:0   MisRate:0.00%    MPKI:0.00
PC:121f2     Total:256      MisBP:0   MisRate:0.00%    MPKI:0.00
PC:1906e     Total:3      MisBP:0   MisRate:0.00%    MPKI:0.00
PC:168ae     Total:2      MisBP:0   MisRate:0.00%    MPKI:0.00
PC:1906c     Total:3      MisBP:0   MisRate:0.00%    MPKI:0.00
PC:15d8a     Total:29010      MisBP:0   MisRate:0.00%    MPKI:0.00
PC:121ec     Total:56      MisBP:0   MisRate:0.00%    MPKI:0.00
PC:168aa     Total:3      MisBP:0   MisRate:0.00%    MPKI:0.00
PC:3977a     Total:1      MisBP:0   MisRate:0.00%    MPKI:0.00
PC:121ea     Total:57      MisBP:0   MisRate:0.00%    MPKI:0.00
PC:121e6     Total:58      MisBP:0   MisRate:0.00%    MPKI:0.00
PC:168a4     Total:5      MisBP:0   MisRate:0.00%    MPKI:0.00
PC:19062     Total:3      MisBP:0   MisRate:0.00%    MPKI:0.00
PC:121e4     Total:58      MisBP:0   MisRate:0.00%    MPKI:0.00
PC:121e2     Total:58      MisBP:0   MisRate:0.00%    MPKI:0.00
PC:1905e     Total:3      MisBP:0   MisRate:0.00%    MPKI:0.00
PC:15144     Total:11      MisBP:0   MisRate:0.00%    MPKI:0.00
PC:15eaa     Total:28998      MisBP:0   MisRate:0.00%    MPKI:0.00
PC:1220a     Total:379632      MisBP:0   MisRate:0.00%    MPKI:0.00
PC:15948     Total:28572      MisBP:0   MisRate:0.00%    MPKI:0.00
PC:15ea8     Total:28998      MisBP:0   MisRate:0.00%    MPKI:0.00
PC:12208     Total:379637      MisBP:0   MisRate:0.00%    MPKI:0.00
PC:15d98     Total:28969      MisBP:0   MisRate:0.00%    MPKI:0.00
PC:15ea6     Total:29002      MisBP:0   MisRate:0.00%    MPKI:0.00
PC:12206     Total:379639      MisBP:0   MisRate:0.00%    MPKI:0.00
PC:15944     Total:28572      MisBP:0   MisRate:0.00%    MPKI:0.00
PC:15d96     Total:29051      MisBP:0   MisRate:0.00%    MPKI:0.00
PC:2924c     Total:7      MisBP:0   MisRate:0.00%    MPKI:0.00
PC:121e0     Total:58      MisBP:0   MisRate:0.00%    MPKI:0.00
PC:15ea2     Total:29019      MisBP:0   MisRate:0.00%    MPKI:0.00
PC:12202     Total:379639      MisBP:0   MisRate:0.00%    MPKI:0.00
PC:36238     Total:19      MisBP:0   MisRate:0.00%    MPKI:0.00
PC:15ea0     Total:29019      MisBP:0   MisRate:0.00%    MPKI:0.00
PC:15e9e     Total:28976      MisBP:0   MisRate:0.00%    MPKI:0.00
PC:121fe     Total:759281      MisBP:0   MisRate:0.00%    MPKI:0.00
PC:15d8e     Total:29009      MisBP:0   MisRate:0.00%    MPKI:0.00
PC:15e9c     Total:28975      MisBP:0   MisRate:0.00%    MPKI:0.00
PC:29244     Total:18      MisBP:0   MisRate:0.00%    MPKI:0.00
PC:121fa     Total:255      MisBP:0   MisRate:0.00%    MPKI:0.00
PC:15d76     Total:29041      MisBP:0   MisRate:0.00%    MPKI:0.00
PC:15e94     Total:28977      MisBP:0   MisRate:0.00%    MPKI:0.00
PC:3622a     Total:7      MisBP:0   MisRate:0.00%    MPKI:0.00
PC:15e92     Total:29004      MisBP:0   MisRate:0.00%    MPKI:0.00
PC:15d82     Total:29010      MisBP:0   MisRate:0.00%    MPKI:0.00
PC:36228     Total:7      MisBP:0   MisRate:0.00%    MPKI:0.00
PC:15e90     Total:29029      MisBP:0   MisRate:0.00%    MPKI:0.00
PC:36226     Total:7      MisBP:0   MisRate:0.00%    MPKI:0.00
PC:15e8e     Total:29029      MisBP:0   MisRate:0.00%    MPKI:0.00
PC:15d7c     Total:29059      MisBP:0   MisRate:0.00%    MPKI:0.00
PC:36222     Total:7      MisBP:0   MisRate:0.00%    MPKI:0.00
PC:15e88     Total:29034      MisBP:0   MisRate:0.00%    MPKI:0.00
PC:3622c     Total:20      MisBP:0   MisRate:0.00%    MPKI:0.00
PC:3621c     Total:7      MisBP:0   MisRate:0.00%    MPKI:0.00
PC:15e82     Total:29035      MisBP:0   MisRate:0.00%    MPKI:0.00
PC:36216     Total:9      MisBP:0   MisRate:0.00%    MPKI:0.00
PC:15e7e     Total:29184      MisBP:0   MisRate:0.00%    MPKI:0.00
PC:15e7c     Total:29248      MisBP:0   MisRate:0.00%    MPKI:0.00
PC:14dfa     Total:15020      MisBP:0   MisRate:0.00%    MPKI:0.00
PC:1263c     Total:1      MisBP:0   MisRate:0.00%    MPKI:0.00
PC:36220     Total:7      MisBP:0   MisRate:0.00%    MPKI:0.00
PC:15d7a     Total:29102      MisBP:0   MisRate:0.00%    MPKI:0.00
PC:15e78     Total:29251      MisBP:0   MisRate:0.00%    MPKI:0.00
PC:1688e     Total:56      MisBP:0   MisRate:0.00%    MPKI:0.00
PC:1689e     Total:5      MisBP:0   MisRate:0.00%    MPKI:0.00
PC:1905c     Total:3      MisBP:0   MisRate:0.00%    MPKI:0.00
PC:19058     Total:3      MisBP:0   MisRate:0.00%    MPKI:0.00
PC:121da     Total:483      MisBP:0   MisRate:0.00%    MPKI:0.00
PC:121d8     Total:483      MisBP:0   MisRate:0.00%    MPKI:0.00
PC:19054     Total:3      MisBP:0   MisRate:0.00%    MPKI:0.00
PC:121d4     Total:484      MisBP:0   MisRate:0.00%    MPKI:0.00
PC:121d0     Total:485      MisBP:0   MisRate:0.00%    MPKI:0.00
PC:140d0     Total:132      MisBP:0   MisRate:0.00%    MPKI:0.00
PC:19112     Total:3      MisBP:0   MisRate:0.00%    MPKI:0.00
PC:15d9c     Total:28969      MisBP:0   MisRate:0.00%    MPKI:0.00
PC:1904c     Total:3      MisBP:0   MisRate:0.00%    MPKI:0.00
PC:121ce     Total:487      MisBP:0   MisRate:0.00%    MPKI:0.00
PC:121ca     Total:487      MisBP:0   MisRate:0.00%    MPKI:0.00
PC:121c8     Total:489      MisBP:0   MisRate:0.00%    MPKI:0.00
PC:16886     Total:56      MisBP:0   MisRate:0.00%    MPKI:0.00
PC:19044     Total:3      MisBP:0   MisRate:0.00%    MPKI:0.00
PC:121c4     Total:489      MisBP:0   MisRate:0.00%    MPKI:0.00
PC:121c2     Total:489      MisBP:0   MisRate:0.00%    MPKI:0.00
PC:1903e     Total:3      MisBP:0   MisRate:0.00%    MPKI:0.00
PC:15d86     Total:29010      MisBP:0   MisRate:0.00%    MPKI:0.00
PC:14d00     Total:14400      MisBP:0   MisRate:0.00%    MPKI:0.00
PC:15c8e     Total:29039      MisBP:0   MisRate:0.00%    MPKI:0.00
PC:14d0c     Total:14460      MisBP:0   MisRate:0.00%    MPKI:0.00
PC:1254e     Total:1      MisBP:0   MisRate:0.00%    MPKI:0.00
PC:15c8c     Total:29039      MisBP:0   MisRate:0.00%    MPKI:0.00
PC:1254a     Total:1      MisBP:0   MisRate:0.00%    MPKI:0.00
PC:15c88     Total:29039      MisBP:0   MisRate:0.00%    MPKI:0.00
PC:14d06     Total:14400      MisBP:0   MisRate:0.00%    MPKI:0.00
PC:12548     Total:1      MisBP:0   MisRate:0.00%    MPKI:0.00
PC:15c86     Total:29039      MisBP:0   MisRate:0.00%    MPKI:0.00
PC:12544     Total:1      MisBP:0   MisRate:0.00%    MPKI:0.00
PC:15c82     Total:29089      MisBP:0   MisRate:0.00%    MPKI:0.00
PC:12550     Total:1      MisBP:0   MisRate:0.00%    MPKI:0.00
PC:12542     Total:1      MisBP:0   MisRate:0.00%    MPKI:0.00
PC:15c80     Total:29089      MisBP:0   MisRate:0.00%    MPKI:0.00
PC:14cfe     Total:14929      MisBP:0   MisRate:0.00%    MPKI:0.00
PC:12540     Total:424      MisBP:0   MisRate:0.00%    MPKI:0.00
PC:15c7e     Total:29207      MisBP:0   MisRate:0.00%    MPKI:0.00
PC:14cfc     Total:14930      MisBP:0   MisRate:0.00%    MPKI:0.00
PC:1253e     Total:435      MisBP:0   MisRate:0.00%    MPKI:0.00
PC:15c7c     Total:29207      MisBP:0   MisRate:0.00%    MPKI:0.00
PC:2927c     Total:3      MisBP:0   MisRate:0.00%    MPKI:0.00
PC:15174     Total:15      MisBP:0   MisRate:0.00%    MPKI:0.00
PC:1256a     Total:1      MisBP:0   MisRate:0.00%    MPKI:0.00
PC:11e54     Total:300      MisBP:0   MisRate:0.00%    MPKI:0.00
PC:11e52     Total:300      MisBP:0   MisRate:0.00%    MPKI:0.00
PC:11e50     Total:300      MisBP:0   MisRate:0.00%    MPKI:0.00
PC:11e4e     Total:300      MisBP:0   MisRate:0.00%    MPKI:0.00
PC:11e4c     Total:300      MisBP:0   MisRate:0.00%    MPKI:0.00
PC:11e4a     Total:300      MisBP:0   MisRate:0.00%    MPKI:0.00
PC:11e48     Total:300      MisBP:0   MisRate:0.00%    MPKI:0.00
PC:11e44     Total:601      MisBP:0   MisRate:0.00%    MPKI:0.00
PC:11e40     Total:301      MisBP:0   MisRate:0.00%    MPKI:0.00
PC:11e3e     Total:307      MisBP:0   MisRate:0.00%    MPKI:0.00
PC:14d28     Total:14802      MisBP:0   MisRate:0.00%    MPKI:0.00
PC:12234     Total:47072      MisBP:0   MisRate:0.00%    MPKI:0.00
PC:14d22     Total:14442      MisBP:0   MisRate:0.00%    MPKI:0.00
PC:12564     Total:1      MisBP:0   MisRate:0.00%    MPKI:0.00
PC:15ca2     Total:28973      MisBP:0   MisRate:0.00%    MPKI:0.00
PC:12560     Total:1      MisBP:0   MisRate:0.00%    MPKI:0.00
PC:15c9e     Total:28973      MisBP:0   MisRate:0.00%    MPKI:0.00
PC:14d1a     Total:14443      MisBP:0   MisRate:0.00%    MPKI:0.00
PC:1255c     Total:1      MisBP:0   MisRate:0.00%    MPKI:0.00
PC:14d14     Total:14454      MisBP:0   MisRate:0.00%    MPKI:0.00
PC:12556     Total:1      MisBP:0   MisRate:0.00%    MPKI:0.00
PC:14d0e     Total:14460      MisBP:0   MisRate:0.00%    MPKI:0.00
PC:12214     Total:379575      MisBP:0   MisRate:0.00%    MPKI:0.00
PC:1221a     Total:379570      MisBP:0   MisRate:0.00%    MPKI:0.00
PC:29748     Total:145      MisBP:0   MisRate:0.00%    MPKI:0.00
PC:15958     Total:28572      MisBP:0   MisRate:0.00%    MPKI:0.00
PC:15daa     Total:29105      MisBP:0   MisRate:0.00%    MPKI:0.00
PC:15eb8     Total:29093      MisBP:0   MisRate:0.00%    MPKI:0.00
PC:15da8     Total:29025      MisBP:0   MisRate:0.00%    MPKI:0.00
PC:15eb6     Total:29095      MisBP:0   MisRate:0.00%    MPKI:0.00
PC:12216     Total:379574      MisBP:0   MisRate:0.00%    MPKI:0.00
PC:15954     Total:28572      MisBP:0   MisRate:0.00%    MPKI:0.00
PC:15da6     Total:29025      MisBP:0   MisRate:0.00%    MPKI:0.00
PC:15eb4     Total:29051      MisBP:0   MisRate:0.00%    MPKI:0.00
PC:15eba     Total:29039      MisBP:0   MisRate:0.00%    MPKI:0.00
PC:15eb0     Total:28998      MisBP:0   MisRate:0.00%    MPKI:0.00
PC:12210     Total:379580      MisBP:0   MisRate:0.00%    MPKI:0.00
PC:15da0     Total:28969      MisBP:0   MisRate:0.00%    MPKI:0.00
PC:29256     Total:4      MisBP:0   MisRate:0.00%    MPKI:0.00
PC:1514e     Total:11      MisBP:0   MisRate:0.00%    MPKI:0.00
PC:1220e     Total:379626      MisBP:0   MisRate:0.00%    MPKI:0.00
PC:1594c     Total:28572      MisBP:0   MisRate:0.00%    MPKI:0.00
PC:36244     Total:17      MisBP:0   MisRate:0.00%    MPKI:0.00
PC:15eac     Total:28998      MisBP:0   MisRate:0.00%    MPKI:0.00
PC:1220c     Total:379628      MisBP:0   MisRate:0.00%    MPKI:0.00
PC:1547e     Total:28527      MisBP:0   MisRate:0.00%    MPKI:0.00
PC:29278     Total:4      MisBP:0   MisRate:0.00%    MPKI:0.00
PC:15170     Total:15      MisBP:0   MisRate:0.00%    MPKI:0.00
PC:12230     Total:3      MisBP:0   MisRate:0.00%    MPKI:0.00
PC:29274     Total:8      MisBP:0   MisRate:0.00%    MPKI:0.00
PC:1516c     Total:15      MisBP:0   MisRate:0.00%    MPKI:0.00
PC:1222c     Total:49      MisBP:0   MisRate:0.00%    MPKI:0.00
PC:1596a     Total:28571      MisBP:0   MisRate:0.00%    MPKI:0.00
PC:15482     Total:57056      MisBP:0   MisRate:0.00%    MPKI:0.00
PC:29272     Total:4      MisBP:0   MisRate:0.00%    MPKI:0.00
PC:1516a     Total:11      MisBP:0   MisRate:0.00%    MPKI:0.00
PC:15f62     Total:29050      MisBP:0   MisRate:0.00%    MPKI:0.00
PC:2926e     Total:4      MisBP:0   MisRate:0.00%    MPKI:0.00
PC:15166     Total:11      MisBP:0   MisRate:0.00%    MPKI:0.00
PC:15db2     Total:29072      MisBP:0   MisRate:0.00%    MPKI:0.00
PC:15ec0     Total:29014      MisBP:0   MisRate:0.00%    MPKI:0.00
PC:12220     Total:295      MisBP:0   MisRate:0.00%    MPKI:0.00
PC:15db0     Total:29072      MisBP:0   MisRate:0.00%    MPKI:0.00
PC:15ebe     Total:29117      MisBP:0   MisRate:0.00%    MPKI:0.00
PC:1221e     Total:295      MisBP:0   MisRate:0.00%    MPKI:0.00
PC:29264     Total:4      MisBP:0   MisRate:0.00%    MPKI:0.00
PC:1515c     Total:11      MisBP:0   MisRate:0.00%    MPKI:0.00
PC:16128     Total:28985      MisBP:0   MisRate:0.00%    MPKI:0.00
PC:16142     Total:28909      MisBP:0   MisRate:0.00%    MPKI:0.00
PC:1613e     Total:28909      MisBP:0   MisRate:0.00%    MPKI:0.00
PC:1613a     Total:29003      MisBP:0   MisRate:0.00%    MPKI:0.00
PC:111bc     Total:78      MisBP:0   MisRate:0.00%    MPKI:0.00
PC:16138     Total:29003      MisBP:0   MisRate:0.00%    MPKI:0.00
PC:16134     Total:29003      MisBP:0   MisRate:0.00%    MPKI:0.00
PC:16132     Total:29003      MisBP:0   MisRate:0.00%    MPKI:0.00
PC:16130     Total:29003      MisBP:0   MisRate:0.00%    MPKI:0.00
PC:1612e     Total:28990      MisBP:0   MisRate:0.00%    MPKI:0.00
PC:1612c     Total:28979      MisBP:0   MisRate:0.00%    MPKI:0.00
PC:1612a     Total:28985      MisBP:0   MisRate:0.00%    MPKI:0.00
PC:16144     Total:28946      MisBP:0   MisRate:0.00%    MPKI:0.00
PC:16124     Total:28981      MisBP:0   MisRate:0.00%    MPKI:0.00
PC:16122     Total:28982      MisBP:0   MisRate:0.00%    MPKI:0.00
PC:16120     Total:28982      MisBP:0   MisRate:0.00%    MPKI:0.00
PC:111a0     Total:78      MisBP:0   MisRate:0.00%    MPKI:0.00
PC:1611c     Total:28983      MisBP:0   MisRate:0.00%    MPKI:0.00
PC:1119c     Total:78      MisBP:0   MisRate:0.00%    MPKI:0.00
PC:16118     Total:29002      MisBP:0   MisRate:0.00%    MPKI:0.00
PC:16116     Total:29020      MisBP:0   MisRate:0.00%    MPKI:0.00
PC:16112     Total:29025      MisBP:0   MisRate:0.00%    MPKI:0.00
PC:1610e     Total:29026      MisBP:0   MisRate:0.00%    MPKI:0.00
PC:111da     Total:46      MisBP:0   MisRate:0.00%    MPKI:0.00
PC:16178     Total:29026      MisBP:0   MisRate:0.00%    MPKI:0.00
PC:16174     Total:29026      MisBP:0   MisRate:0.00%    MPKI:0.00
PC:16170     Total:29026      MisBP:0   MisRate:0.00%    MPKI:0.00
PC:1616c     Total:29026      MisBP:0   MisRate:0.00%    MPKI:0.00
PC:16168     Total:29026      MisBP:0   MisRate:0.00%    MPKI:0.00
PC:16166     Total:29026      MisBP:0   MisRate:0.00%    MPKI:0.00
PC:16164     Total:29068      MisBP:0   MisRate:0.00%    MPKI:0.00
PC:16162     Total:29068      MisBP:0   MisRate:0.00%    MPKI:0.00
PC:16160     Total:29069      MisBP:0   MisRate:0.00%    MPKI:0.00
PC:1615e     Total:28988      MisBP:0   MisRate:0.00%    MPKI:0.00
PC:1615a     Total:28988      MisBP:0   MisRate:0.00%    MPKI:0.00
PC:1610c     Total:29027      MisBP:0   MisRate:0.00%    MPKI:0.00
PC:16156     Total:28988      MisBP:0   MisRate:0.00%    MPKI:0.00
PC:16154     Total:28990      MisBP:0   MisRate:0.00%    MPKI:0.00
PC:16150     Total:28990      MisBP:0   MisRate:0.00%    MPKI:0.00
PC:1614e     Total:28991      MisBP:0   MisRate:0.00%    MPKI:0.00
PC:1614c     Total:28987      MisBP:0   MisRate:0.00%    MPKI:0.00
PC:111ce     Total:46      MisBP:0   MisRate:0.00%    MPKI:0.00
PC:1614a     Total:28988      MisBP:0   MisRate:0.00%    MPKI:0.00
PC:16148     Total:28988      MisBP:0   MisRate:0.00%    MPKI:0.00
PC:111ca     Total:60      MisBP:0   MisRate:0.00%    MPKI:0.00
PC:16146     Total:28946      MisBP:0   MisRate:0.00%    MPKI:0.00
PC:160ba     Total:29051      MisBP:0   MisRate:0.00%    MPKI:0.00
PC:160d4     Total:28984      MisBP:0   MisRate:0.00%    MPKI:0.00
PC:160d2     Total:28987      MisBP:0   MisRate:0.00%    MPKI:0.00
PC:160d0     Total:29007      MisBP:0   MisRate:0.00%    MPKI:0.00
PC:160ce     Total:28964      MisBP:0   MisRate:0.00%    MPKI:0.00
PC:160cc     Total:28957      MisBP:0   MisRate:0.00%    MPKI:0.00
PC:160ca     Total:28957      MisBP:0   MisRate:0.00%    MPKI:0.00
PC:160c6     Total:28957      MisBP:0   MisRate:0.00%    MPKI:0.00
PC:160c4     Total:28957      MisBP:0   MisRate:0.00%    MPKI:0.00
PC:160c2     Total:28958      MisBP:0   MisRate:0.00%    MPKI:0.00
PC:160c0     Total:28917      MisBP:0   MisRate:0.00%    MPKI:0.00
PC:160bc     Total:29051      MisBP:0   MisRate:0.00%    MPKI:0.00
PC:160d8     Total:28982      MisBP:0   MisRate:0.00%    MPKI:0.00
PC:160b8     Total:29051      MisBP:0   MisRate:0.00%    MPKI:0.00
PC:160b6     Total:28996      MisBP:0   MisRate:0.00%    MPKI:0.00
PC:160b2     Total:28996      MisBP:0   MisRate:0.00%    MPKI:0.00
PC:160b0     Total:28996      MisBP:0   MisRate:0.00%    MPKI:0.00
PC:160ae     Total:29003      MisBP:0   MisRate:0.00%    MPKI:0.00
PC:160ac     Total:28960      MisBP:0   MisRate:0.00%    MPKI:0.00
PC:160aa     Total:28960      MisBP:0   MisRate:0.00%    MPKI:0.00
PC:160a8     Total:28959      MisBP:0   MisRate:0.00%    MPKI:0.00
PC:160a6     Total:28959      MisBP:0   MisRate:0.00%    MPKI:0.00
PC:160a4     Total:29008      MisBP:0   MisRate:0.00%    MPKI:0.00
PC:160f0     Total:29142      MisBP:0   MisRate:0.00%    MPKI:0.00
PC:1610a     Total:29047      MisBP:0   MisRate:0.00%    MPKI:0.00
PC:16106     Total:29047      MisBP:0   MisRate:0.00%    MPKI:0.00
PC:16104     Total:29050      MisBP:0   MisRate:0.00%    MPKI:0.00
PC:16102     Total:29059      MisBP:0   MisRate:0.00%    MPKI:0.00
PC:16100     Total:29057      MisBP:0   MisRate:0.00%    MPKI:0.00
PC:160fe     Total:29132      MisBP:0   MisRate:0.00%    MPKI:0.00
PC:160fa     Total:29132      MisBP:0   MisRate:0.00%    MPKI:0.00
PC:160f8     Total:29134      MisBP:0   MisRate:0.00%    MPKI:0.00
PC:160f4     Total:29140      MisBP:0   MisRate:0.00%    MPKI:0.00
PC:160f2     Total:29142      MisBP:0   MisRate:0.00%    MPKI:0.00
PC:1617a     Total:28988      MisBP:0   MisRate:0.00%    MPKI:0.00
PC:160ee     Total:29057      MisBP:0   MisRate:0.00%    MPKI:0.00
PC:160ec     Total:29057      MisBP:0   MisRate:0.00%    MPKI:0.00
PC:160ea     Total:29050      MisBP:0   MisRate:0.00%    MPKI:0.00
PC:160e8     Total:29050      MisBP:0   MisRate:0.00%    MPKI:0.00
PC:160e6     Total:29009      MisBP:0   MisRate:0.00%    MPKI:0.00
PC:160e4     Total:29048      MisBP:0   MisRate:0.00%    MPKI:0.00
PC:160e2     Total:28986      MisBP:0   MisRate:0.00%    MPKI:0.00
PC:160de     Total:28986      MisBP:0   MisRate:0.00%    MPKI:0.00
PC:160dc     Total:28986      MisBP:0   MisRate:0.00%    MPKI:0.00
PC:160da     Total:28986      MisBP:0   MisRate:0.00%    MPKI:0.00
PC:161fa     Total:29050      MisBP:0   MisRate:0.00%    MPKI:0.00
PC:111d0     Total:46      MisBP:0   MisRate:0.00%    MPKI:0.00
PC:1620e     Total:28954      MisBP:0   MisRate:0.00%    MPKI:0.00
PC:1620a     Total:28967      MisBP:0   MisRate:0.00%    MPKI:0.00
[...]
PC:12440     Total:492930      MisBP:0   MisRate:0.00%    MPKI:0.00
PC:15df8     Total:29238      MisBP:0   MisRate:0.00%    MPKI:0.00
PC:11f26     Total:37353      MisBP:0   MisRate:0.00%    MPKI:0.00
PC:123c0     Total:73528      MisBP:0   MisRate:0.00%    MPKI:0.00
PC:11b16     Total:45      MisBP:0   MisRate:0.00%    MPKI:0.00
PC:11f86     Total:75133      MisBP:0   MisRate:0.00%    MPKI:0.00
PC:15afc     Total:29217      MisBP:0   MisRate:0.00%    MPKI:0.00
PC:1203c     Total:1806374      MisBP:0   MisRate:0.00%    MPKI:0.00
PC:14c34     Total:10939      MisBP:0   MisRate:0.00%    MPKI:0.00
PC:15bb4     Total:29494      MisBP:0   MisRate:0.00%    MPKI:0.00
PC:1333e     Total:150      MisBP:0   MisRate:0.00%    MPKI:0.00
PC:123be     Total:74306      MisBP:0   MisRate:0.00%    MPKI:0.00
PC:11f84     Total:75082      MisBP:0   MisRate:0.00%    MPKI:0.00
PC:14b7c     Total:5      MisBP:0   MisRate:0.00%    MPKI:0.00
PC:15b7e     Total:29404      MisBP:0   MisRate:0.00%    MPKI:0.00
PC:10210     Total:2      MisBP:0   MisRate:0.00%    MPKI:0.00
PC:1318c     Total:323      MisBP:0   MisRate:0.00%    MPKI:0.00
PC:11b14     Total:9      MisBP:0   MisRate:0.00%    MPKI:0.00
PC:14b8a     Total:2      MisBP:0   MisRate:0.00%    MPKI:0.00
PC:15252     Total:1      MisBP:0   MisRate:0.00%    MPKI:0.00
PC:123cc     Total:51796      MisBP:0   MisRate:0.00%    MPKI:0.00
PC:15abe     Total:28986      MisBP:0   MisRate:0.00%    MPKI:0.00
PC:12380     Total:589801      MisBP:0   MisRate:0.00%    MPKI:0.00
PC:14b3e     Total:1      MisBP:0   MisRate:0.00%    MPKI:0.00
PC:15214     Total:3      MisBP:0   MisRate:0.00%    MPKI:0.00
PC:14bfe     Total:11574      MisBP:1   MisRate:0.01%    MPKI:0.00
PC:11d68     Total:6      MisBP:1   MisRate:16.67%    MPKI:0.00
PC:11a16     Total:100140      MisBP:1   MisRate:0.00%    MPKI:0.00
PC:361f6     Total:59      MisBP:1   MisRate:1.69%    MPKI:0.00
PC:18dc0     Total:10292      MisBP:1   MisRate:0.01%    MPKI:0.00
PC:125f0     Total:172259      MisBP:1   MisRate:0.00%    MPKI:0.00
PC:7724c4     Total:0      MisBP:1   MisRate:inf%    MPKI:0.00
PC:7724d6     Total:0      MisBP:1   MisRate:inf%    MPKI:0.00
PC:165a8     Total:1      MisBP:1   MisRate:100.00%    MPKI:0.00
PC:29804     Total:55      MisBP:1   MisRate:1.82%    MPKI:0.00
PC:11c96     Total:8      MisBP:1   MisRate:12.50%    MPKI:0.00
PC:12f14     Total:26      MisBP:1   MisRate:3.85%    MPKI:0.00
PC:152f0     Total:278      MisBP:1   MisRate:0.36%    MPKI:0.00
PC:18fa0     Total:11      MisBP:1   MisRate:9.09%    MPKI:0.00
PC:130ae     Total:527097      MisBP:1   MisRate:0.00%    MPKI:0.00
PC:7724d4     Total:0      MisBP:1   MisRate:inf%    MPKI:0.00
PC:166a8     Total:34      MisBP:1   MisRate:2.94%    MPKI:0.00
PC:166f0     Total:5      MisBP:1   MisRate:20.00%    MPKI:0.00
PC:7724d2     Total:0      MisBP:1   MisRate:inf%    MPKI:0.00
PC:12902     Total:102      MisBP:1   MisRate:0.98%    MPKI:0.00
PC:7724d0     Total:0      MisBP:1   MisRate:inf%    MPKI:0.00
PC:18e04     Total:18      MisBP:1   MisRate:5.56%    MPKI:0.00
PC:7724ce     Total:0      MisBP:1   MisRate:inf%    MPKI:0.00
PC:11b88     Total:1      MisBP:1   MisRate:100.00%    MPKI:0.00
PC:14af2     Total:1      MisBP:1   MisRate:100.00%    MPKI:0.00
PC:14f2e     Total:4      MisBP:1   MisRate:25.00%    MPKI:0.00
PC:3623a     Total:19      MisBP:1   MisRate:5.26%    MPKI:0.00
PC:7724cc     Total:0      MisBP:1   MisRate:inf%    MPKI:0.00
PC:29818     Total:1      MisBP:1   MisRate:100.00%    MPKI:0.00
PC:15504     Total:6      MisBP:1   MisRate:16.67%    MPKI:0.00
PC:294fc     Total:159      MisBP:1   MisRate:0.63%    MPKI:0.00
PC:12fde     Total:1      MisBP:1   MisRate:100.00%    MPKI:0.00
PC:3625c     Total:95      MisBP:1   MisRate:1.05%    MPKI:0.00
PC:12fd8     Total:1      MisBP:1   MisRate:100.00%    MPKI:0.00
PC:7724ca     Total:0      MisBP:1   MisRate:inf%    MPKI:0.00
PC:15498     Total:28527      MisBP:1   MisRate:0.00%    MPKI:0.00
PC:7724c8     Total:0      MisBP:1   MisRate:inf%    MPKI:0.00
PC:125b2     Total:1      MisBP:1   MisRate:100.00%    MPKI:0.00
PC:11c66     Total:5      MisBP:1   MisRate:20.00%    MPKI:0.00
PC:7724c6     Total:0      MisBP:1   MisRate:inf%    MPKI:0.00
PC:151f8     Total:3      MisBP:2   MisRate:66.67%    MPKI:0.00
PC:11bb4     Total:65553      MisBP:2   MisRate:0.00%    MPKI:0.00
PC:165be     Total:15      MisBP:2   MisRate:13.33%    MPKI:0.00
PC:15934     Total:29113      MisBP:2   MisRate:0.01%    MPKI:0.00
PC:15196     Total:14      MisBP:2   MisRate:14.29%    MPKI:0.00
PC:13074     Total:1356      MisBP:2   MisRate:0.15%    MPKI:0.00
PC:15286     Total:315      MisBP:2   MisRate:0.63%    MPKI:0.00
PC:1666e     Total:13      MisBP:2   MisRate:15.38%    MPKI:0.00
PC:140be     Total:102      MisBP:2   MisRate:1.96%    MPKI:0.00
PC:125f6     Total:172262      MisBP:2   MisRate:0.00%    MPKI:0.00
PC:13354     Total:799      MisBP:2   MisRate:0.25%    MPKI:0.00
PC:29348     Total:163      MisBP:2   MisRate:1.23%    MPKI:0.00
PC:29354     Total:2      MisBP:2   MisRate:100.00%    MPKI:0.00
PC:121be     Total:493      MisBP:2   MisRate:0.41%    MPKI:0.00
PC:140d2     Total:937      MisBP:2   MisRate:0.21%    MPKI:0.00
PC:11d8a     Total:261      MisBP:2   MisRate:0.77%    MPKI:0.00
PC:16696     Total:27      MisBP:2   MisRate:7.41%    MPKI:0.00
PC:167d0     Total:757      MisBP:2   MisRate:0.26%    MPKI:0.00
PC:29404     Total:159      MisBP:2   MisRate:1.26%    MPKI:0.00
PC:1104e     Total:104      MisBP:2   MisRate:1.92%    MPKI:0.00
PC:14bc4     Total:263      MisBP:2   MisRate:0.76%    MPKI:0.00
PC:15408     Total:28600      MisBP:2   MisRate:0.01%    MPKI:0.00
PC:16760     Total:12529      MisBP:2   MisRate:0.02%    MPKI:0.00
PC:10ecc     Total:113      MisBP:2   MisRate:1.77%    MPKI:0.00
PC:12640     Total:17      MisBP:2   MisRate:11.76%    MPKI:0.00
PC:14f58     Total:32      MisBP:2   MisRate:6.25%    MPKI:0.00
PC:166b6     Total:31      MisBP:3   MisRate:9.68%    MPKI:0.00
PC:121f0     Total:438      MisBP:3   MisRate:0.68%    MPKI:0.00
PC:14bb6     Total:266      MisBP:3   MisRate:1.13%    MPKI:0.00
PC:13382     Total:146      MisBP:3   MisRate:2.05%    MPKI:0.00
PC:1417e     Total:45      MisBP:3   MisRate:6.67%    MPKI:0.00
PC:11d9a     Total:18      MisBP:3   MisRate:16.67%    MPKI:0.00
PC:111de     Total:46      MisBP:3   MisRate:6.52%    MPKI:0.00
PC:11cc6     Total:65544      MisBP:3   MisRate:0.00%    MPKI:0.00
PC:12e56     Total:110      MisBP:3   MisRate:2.73%    MPKI:0.00
PC:152aa     Total:11      MisBP:3   MisRate:27.27%    MPKI:0.00
PC:18fb2     Total:9      MisBP:3   MisRate:33.33%    MPKI:0.00
PC:1272a     Total:106      MisBP:3   MisRate:2.83%    MPKI:0.00
PC:18d92     Total:2610      MisBP:3   MisRate:0.11%    MPKI:0.00
PC:151f0     Total:11      MisBP:3   MisRate:27.27%    MPKI:0.00
PC:16896     Total:47      MisBP:3   MisRate:6.38%    MPKI:0.00
PC:1253a     Total:46      MisBP:3   MisRate:6.52%    MPKI:0.00
PC:10f9c     Total:105      MisBP:3   MisRate:2.86%    MPKI:0.00
PC:153d2     Total:10      MisBP:3   MisRate:30.00%    MPKI:0.00
PC:166e8     Total:30      MisBP:3   MisRate:10.00%    MPKI:0.00
PC:14f1e     Total:11      MisBP:3   MisRate:27.27%    MPKI:0.00
PC:16606     Total:12698      MisBP:3   MisRate:0.02%    MPKI:0.00
PC:14bde     Total:270      MisBP:4   MisRate:1.48%    MPKI:0.00
PC:1208c     Total:416      MisBP:4   MisRate:0.96%    MPKI:0.00
PC:1532a     Total:10      MisBP:4   MisRate:40.00%    MPKI:0.00
PC:11b12     Total:420668      MisBP:4   MisRate:0.00%    MPKI:0.00
PC:14f16     Total:14291      MisBP:4   MisRate:0.03%    MPKI:0.00
PC:12e6c     Total:215673      MisBP:4   MisRate:0.00%    MPKI:0.00
PC:11c90     Total:49      MisBP:4   MisRate:8.16%    MPKI:0.00
PC:10158     Total:507      MisBP:4   MisRate:0.79%    MPKI:0.00
PC:14bf6     Total:269      MisBP:4   MisRate:1.49%    MPKI:0.00
PC:29470     Total:184      MisBP:5   MisRate:2.72%    MPKI:0.00
PC:15576     Total:28522      MisBP:5   MisRate:0.02%    MPKI:0.00
PC:11c50     Total:125108      MisBP:5   MisRate:0.00%    MPKI:0.00
PC:18de2     Total:55      MisBP:5   MisRate:9.09%    MPKI:0.00
PC:16802     Total:5      MisBP:5   MisRate:100.00%    MPKI:0.00
PC:13000     Total:6      MisBP:5   MisRate:83.33%    MPKI:0.00
PC:16768     Total:8      MisBP:5   MisRate:62.50%    MPKI:0.00
PC:13346     Total:153      MisBP:5   MisRate:3.27%    MPKI:0.00
PC:1697a     Total:1029      MisBP:5   MisRate:0.49%    MPKI:0.00
PC:14162     Total:198      MisBP:5   MisRate:2.53%    MPKI:0.00
PC:18fd0     Total:6      MisBP:5   MisRate:83.33%    MPKI:0.00
PC:1593e     Total:28572      MisBP:6   MisRate:0.02%    MPKI:0.00
PC:14168     Total:198      MisBP:6   MisRate:3.03%    MPKI:0.00
PC:154fa     Total:37      MisBP:6   MisRate:16.22%    MPKI:0.00
PC:166d4     Total:412      MisBP:6   MisRate:1.46%    MPKI:0.00
PC:15120     Total:17      MisBP:6   MisRate:35.29%    MPKI:0.00
PC:12efc     Total:128      MisBP:6   MisRate:4.69%    MPKI:0.00
PC:11d58     Total:125120      MisBP:6   MisRate:0.00%    MPKI:0.00
PC:141a8     Total:123      MisBP:6   MisRate:4.88%    MPKI:0.00
PC:151e8     Total:1636      MisBP:7   MisRate:0.43%    MPKI:0.00
PC:167fa     Total:15      MisBP:7   MisRate:46.67%    MPKI:0.00
PC:16644     Total:1538      MisBP:7   MisRate:0.46%    MPKI:0.00
PC:154cc     Total:145      MisBP:8   MisRate:5.52%    MPKI:0.00
PC:1668c     Total:502      MisBP:8   MisRate:1.59%    MPKI:0.00
PC:1530e     Total:1342      MisBP:9   MisRate:0.67%    MPKI:0.00
PC:1308a     Total:15432      MisBP:9   MisRate:0.06%    MPKI:0.00
PC:153cc     Total:26      MisBP:9   MisRate:34.62%    MPKI:0.00
PC:153a8     Total:87      MisBP:9   MisRate:10.34%    MPKI:0.00
PC:167f2     Total:3540      MisBP:10   MisRate:0.28%    MPKI:0.00
PC:1414a     Total:167      MisBP:10   MisRate:5.99%    MPKI:0.00
PC:293c4     Total:158      MisBP:11   MisRate:6.96%    MPKI:0.00
PC:297a0     Total:12      MisBP:11   MisRate:91.67%    MPKI:0.00
PC:18e8c     Total:106      MisBP:11   MisRate:10.38%    MPKI:0.00
PC:12e5c     Total:155      MisBP:11   MisRate:7.10%    MPKI:0.00
PC:293d0     Total:158      MisBP:12   MisRate:7.59%    MPKI:0.00
PC:16854     Total:13008      MisBP:12   MisRate:0.09%    MPKI:0.00
PC:12180     Total:651      MisBP:13   MisRate:2.00%    MPKI:0.00
PC:18e28     Total:2151      MisBP:13   MisRate:0.60%    MPKI:0.00
PC:15292     Total:322      MisBP:13   MisRate:4.04%    MPKI:0.00
PC:15444     Total:208      MisBP:13   MisRate:6.25%    MPKI:0.00
PC:121dc     Total:483      MisBP:15   MisRate:3.11%    MPKI:0.00
PC:153c2     Total:6147      MisBP:15   MisRate:0.24%    MPKI:0.00
PC:1511c     Total:860345      MisBP:16   MisRate:0.00%    MPKI:0.00
PC:166e2     Total:400      MisBP:17   MisRate:4.25%    MPKI:0.00
PC:18c2e     Total:12770      MisBP:17   MisRate:0.13%    MPKI:0.00
PC:120e6     Total:383      MisBP:17   MisRate:4.44%    MPKI:0.00
PC:12140     Total:360      MisBP:20   MisRate:5.56%    MPKI:0.00
PC:12eae     Total:52      MisBP:21   MisRate:40.38%    MPKI:0.00
PC:12182     Total:32      MisBP:22   MisRate:68.75%    MPKI:0.00
PC:12eda     Total:290      MisBP:22   MisRate:7.59%    MPKI:0.00
PC:130c8     Total:28165      MisBP:22   MisRate:0.08%    MPKI:0.00
PC:16692     Total:503      MisBP:22   MisRate:4.37%    MPKI:0.00
PC:15302     Total:1600      MisBP:23   MisRate:1.44%    MPKI:0.00
PC:18e16     Total:10534      MisBP:24   MisRate:0.23%    MPKI:0.00
PC:11e2a     Total:46      MisBP:25   MisRate:54.35%    MPKI:0.00
PC:11dfc     Total:2072      MisBP:38   MisRate:1.83%    MPKI:0.00
PC:11e26     Total:2513      MisBP:39   MisRate:1.55%    MPKI:0.00
PC:18bf8     Total:15685      MisBP:40   MisRate:0.26%    MPKI:0.00
PC:1227c     Total:93346      MisBP:41   MisRate:0.04%    MPKI:0.00
PC:29654     Total:2030      MisBP:43   MisRate:2.12%    MPKI:0.00
PC:12224     Total:294      MisBP:44   MisRate:14.97%    MPKI:0.00
PC:18b64     Total:9568      MisBP:46   MisRate:0.48%    MPKI:0.00
PC:18ca4     Total:11689      MisBP:48   MisRate:0.41%    MPKI:0.00
PC:12ea0     Total:215675      MisBP:48   MisRate:0.02%    MPKI:0.00
PC:18e84     Total:21985      MisBP:48   MisRate:0.22%    MPKI:0.00
PC:18de0     Total:11429      MisBP:53   MisRate:0.46%    MPKI:0.00
PC:18c4e     Total:253      MisBP:67   MisRate:26.48%    MPKI:0.00
PC:1221c     Total:379566      MisBP:94   MisRate:0.02%    MPKI:0.00
PC:18cc4     Total:234      MisBP:94   MisRate:40.17%    MPKI:0.00
PC:12d9c     Total:15886      MisBP:109   MisRate:0.69%    MPKI:0.00
PC:130b6     Total:526764      MisBP:133   MisRate:0.03%    MPKI:0.00
PC:12da0     Total:986      MisBP:134   MisRate:13.59%    MPKI:0.00
PC:11f7a     Total:77883      MisBP:137   MisRate:0.18%    MPKI:0.00
PC:1211e     Total:336451      MisBP:142   MisRate:0.04%    MPKI:0.00
PC:29454     Total:636      MisBP:146   MisRate:22.96%    MPKI:0.00
PC:15440     Total:1120      MisBP:152   MisRate:13.57%    MPKI:0.00
PC:18c62     Total:62553      MisBP:215   MisRate:0.34%    MPKI:0.00
PC:167cc     Total:939      MisBP:224   MisRate:23.86%    MPKI:0.00
PC:1207e     Total:92529      MisBP:231   MisRate:0.25%    MPKI:0.00
PC:18cd8     Total:56362      MisBP:264   MisRate:0.47%    MPKI:0.00
PC:12178     Total:301558      MisBP:300   MisRate:0.10%    MPKI:0.00
PC:11e60     Total:91179      MisBP:337   MisRate:0.37%    MPKI:0.00
PC:120ce     Total:66463      MisBP:344   MisRate:0.52%    MPKI:0.00
PC:121ae     Total:69962      MisBP:355   MisRate:0.51%    MPKI:0.00
PC:18d84     Total:3109      MisBP:395   MisRate:12.71%    MPKI:0.00
PC:167b8     Total:3326      MisBP:437   MisRate:13.14%    MPKI:0.00
PC:11e18     Total:4117      MisBP:493   MisRate:11.97%    MPKI:0.00
PC:167e4     Total:3762      MisBP:507   MisRate:13.48%    MPKI:0.00
PC:11e7e     Total:44541      MisBP:564   MisRate:1.27%    MPKI:0.00
PC:11ae6     Total:439477      MisBP:722   MisRate:0.16%    MPKI:0.00
PC:18b5a     Total:9380      MisBP:722   MisRate:7.70%    MPKI:0.00
PC:18cfe     Total:53289      MisBP:865   MisRate:1.62%    MPKI:0.00
PC:11ad0     Total:452938      MisBP:1059   MisRate:0.23%    MPKI:0.00
PC:16752     Total:5596      MisBP:1308   MisRate:23.37%    MPKI:0.00
PC:18d68     Total:11360      MisBP:1566   MisRate:13.79%    MPKI:0.01
PC:18bce     Total:16497      MisBP:1618   MisRate:9.81%    MPKI:0.01
PC:123d8     Total:51611      MisBP:1653   MisRate:3.20%    MPKI:0.01
PC:165f8     Total:15085      MisBP:1676   MisRate:11.11%    MPKI:0.01
PC:16740     Total:11259      MisBP:1816   MisRate:16.13%    MPKI:0.01
PC:18c88     Total:58002      MisBP:1895   MisRate:3.27%    MPKI:0.01
PC:11aba     Total:479361      MisBP:1951   MisRate:0.41%    MPKI:0.01
PC:165e6     Total:12154      MisBP:2017   MisRate:16.60%    MPKI:0.01
PC:11aa4     Total:500599      MisBP:2048   MisRate:0.41%    MPKI:0.01
PC:11f64     Total:25763      MisBP:2130   MisRate:8.27%    MPKI:0.01
PC:13086     Total:506200      MisBP:2367   MisRate:0.47%    MPKI:0.01
PC:11a8e     Total:527848      MisBP:2607   MisRate:0.49%    MPKI:0.01
PC:12430     Total:16228      MisBP:2723   MisRate:16.78%    MPKI:0.01
PC:12476     Total:17488      MisBP:2951   MisRate:16.87%    MPKI:0.01
PC:124aa     Total:19675      MisBP:3083   MisRate:15.67%    MPKI:0.01
PC:123f8     Total:17798      MisBP:3179   MisRate:17.86%    MPKI:0.01
PC:11ada     Total:447258      MisBP:3548   MisRate:0.79%    MPKI:0.01
PC:11aee     Total:434374      MisBP:3611   MisRate:0.83%    MPKI:0.01
PC:11a78     Total:563357      MisBP:3857   MisRate:0.68%    MPKI:0.01
PC:18cd0     Total:51963      MisBP:4365   MisRate:8.40%    MPKI:0.01
PC:18c5a     Total:55576      MisBP:4433   MisRate:7.98%    MPKI:0.01
PC:12d8a     Total:46260      MisBP:4554   MisRate:9.84%    MPKI:0.01
PC:11ac4     Total:468791      MisBP:4953   MisRate:1.06%    MPKI:0.02
PC:11aae     Total:496397      MisBP:4991   MisRate:1.01%    MPKI:0.02
PC:11a98     Total:521317      MisBP:5203   MisRate:1.00%    MPKI:0.02
PC:18bec     Total:66581      MisBP:5379   MisRate:8.08%    MPKI:0.02
PC:11e6a     Total:90903      MisBP:6191   MisRate:6.81%    MPKI:0.02
PC:11f08     Total:31397      MisBP:6310   MisRate:20.10%    MPKI:0.02
PC:12242     Total:44145      MisBP:6728   MisRate:15.24%    MPKI:0.02
PC:18dd0     Total:245526      MisBP:7349   MisRate:2.99%    MPKI:0.02
PC:11a5e     Total:632048      MisBP:7468   MisRate:1.18%    MPKI:0.02
PC:11a82     Total:555449      MisBP:7714   MisRate:1.39%    MPKI:0.02
PC:14a5a     Total:447670      MisBP:9144   MisRate:2.04%    MPKI:0.03
PC:11a20     Total:392516      MisBP:9225   MisRate:2.35%    MPKI:0.03
PC:12418     Total:281350      MisBP:10022   MisRate:3.56%    MPKI:0.03
PC:11a6c     Total:622627      MisBP:10039   MisRate:1.61%    MPKI:0.03
PC:130c2     Total:524642      MisBP:10263   MisRate:1.96%    MPKI:0.03
PC:11a3a     Total:779756      MisBP:10293   MisRate:1.32%    MPKI:0.03
PC:12030     Total:1555829      MisBP:10753   MisRate:0.69%    MPKI:0.03
PC:11a28     Total:383305      MisBP:11616   MisRate:3.03%    MPKI:0.04
PC:12454     Total:240510      MisBP:12049   MisRate:5.01%    MPKI:0.04
PC:11ec8     Total:66586      MisBP:12390   MisRate:18.61%    MPKI:0.04
PC:11a04     Total:442822      MisBP:14149   MisRate:3.20%    MPKI:0.05
PC:11a4a     Total:754045      MisBP:14785   MisRate:1.96%    MPKI:0.05
PC:12102     Total:325109      MisBP:15561   MisRate:4.79%    MPKI:0.05
PC:11f5c     Total:2359545      MisBP:16639   MisRate:0.71%    MPKI:0.05
PC:122f2     Total:358410      MisBP:16939   MisRate:4.73%    MPKI:0.05
PC:119e4     Total:647384      MisBP:17135   MisRate:2.65%    MPKI:0.06
PC:1215e     Total:290421      MisBP:19375   MisRate:6.67%    MPKI:0.06
PC:1234a     Total:309749      MisBP:20476   MisRate:6.61%    MPKI:0.07
PC:119fc     Total:522860      MisBP:21393   MisRate:4.09%    MPKI:0.07
PC:11a0c     Total:417332      MisBP:21921   MisRate:5.25%    MPKI:0.07
PC:123ba     Total:239122      MisBP:22320   MisRate:9.33%    MPKI:0.07
PC:1236c     Total:345813      MisBP:23439   MisRate:6.78%    MPKI:0.08
PC:119f4     Total:563618      MisBP:23705   MisRate:4.21%    MPKI:0.08
PC:123c4     Total:73496      MisBP:24037   MisRate:32.71%    MPKI:0.08
PC:119dc     Total:730435      MisBP:24373   MisRate:3.34%    MPKI:0.08
PC:122be     Total:299318      MisBP:24634   MisRate:8.23%    MPKI:0.08
PC:12314     Total:370959      MisBP:27405   MisRate:7.39%    MPKI:0.09
PC:150e2     Total:417189      MisBP:27649   MisRate:6.63%    MPKI:0.09
PC:119ec     Total:614963      MisBP:28400   MisRate:4.62%    MPKI:0.09
PC:1546e     Total:332260      MisBP:28478   MisRate:8.57%    MPKI:0.09
PC:15402     Total:371099      MisBP:28544   MisRate:7.69%    MPKI:0.09
PC:150d8     Total:231146      MisBP:28568   MisRate:12.36%    MPKI:0.09
PC:119d4     Total:791905      MisBP:31265   MisRate:3.95%    MPKI:0.10
PC:12250     Total:345239      MisBP:47711   MisRate:13.82%    MPKI:0.15
PC:119cc     Total:1065761      MisBP:49688   MisRate:4.66%    MPKI:0.16
PC:1508e     Total:403779      MisBP:70308   MisRate:17.41%    MPKI:0.23
PC:12014     Total:967293      MisBP:81699   MisRate:8.45%    MPKI:0.26
PC:119b6     Total:1665365      MisBP:91308   MisRate:5.48%    MPKI:0.29
PC:12042     Total:1241056      MisBP:95059   MisRate:7.66%    MPKI:0.31
PC:1238c     Total:466150      MisBP:111018   MisRate:23.82%    MPKI:0.36
PC:12334     Total:527025      MisBP:120118   MisRate:22.79%    MPKI:0.39
PC:122dc     Total:474998      MisBP:130022   MisRate:27.37%    MPKI:0.42
PC:14a2e     Total:714503      MisBP:144012   MisRate:20.16%    MPKI:0.46
PC:1508c     Total:791801      MisBP:144556   MisRate:18.26%    MPKI:0.47
PC:11f40     Total:2192398      MisBP:146379   MisRate:6.68%    MPKI:0.47
PC:12040     Total:1711126      MisBP:169986   MisRate:9.93%    MPKI:0.55
PC:150f4     Total:15867899      MisBP:212916   MisRate:1.34%    MPKI:0.69
Totfetch:493593428  TotInsts:310000000  TotMis : inf%   MPKI : 7.66
=============finish sim!!!!!!=============
Done running SimPoint!
