Global frequency set at 1000000000000 ticks per second
 Register [printBranch()] ExitCallback !!!!!!! 
gem5 Simulator System.  https://www.gem5.org
gem5 is copyrighted software; use the --copyright option for details.

gem5 version 22.0.0.2
gem5 compiled Sep  7 2022 00:42:18
gem5 started Sep  7 2022 05:32:31
gem5 executing on a100, pid 2807552
command line: /data/zxf/gem5/gem5-prof/build/ARM/gem5.fast --outdir=/data/zxf/checkpoint/spec2006/429.mcf/prof/mcf_ckp_10 /data/zxf/gem5/gem5-prof/configs/example/se.py --cpu-type O3CPU --cpu-clock 1GHz --num-cpu 1 --l1d-hwp-type=BOPPrefetcher --caches --l2cache --l1i_size 32kB --l1d_size 32kB --l2_size 1MB --l1i_assoc 8 --l1d_assoc 8 --l2_assoc 16 --cacheline_size 64 --mem-type DDR3_2133_8x8 --mem-size 16GB --restore-simpoint-checkpoint -r 10 --checkpoint-dir /data/zxf/checkpoint/spec2006/429.mcf/ckpt -c mcf_base.gcc41-64bit -o inp.in

info: Standard input is not a terminal, disabling listeners.
Resuming from /data/zxf/checkpoint/spec2006/429.mcf/ckpt/cpt.simpoint_09_inst_236690000000_weight_0.042353_interval_300000000_warmup_10000000
Resuming from SimPoint #9, start_inst:236690000000, weight:0.042353, interval:300000000, warmup:10000000
Switch at curTick count:10000
Switched CPUS @ tick 138716746152000
[(<m5.objects.ArmCPU.ArmAtomicSimpleCPU object at 0x7f60fef0cbb0>, <m5.objects.ArmCPU.ArmO3CPU object at 0x7f60fef24e20>)]
switching cpus



+++++++++++++++++++++++++zxf print simpoint+++++++++++++++++++++++++++
Warmed up! Dumping and resetting stats!


=============start sim!!!!!!=============
PC:113f6     Total:1      MisBP:0   MisRate:0.00%    MPKI:0.00
PC:113ea     Total:1      MisBP:0   MisRate:0.00%    MPKI:0.00
PC:11288     Total:6026772      MisBP:0   MisRate:0.00%    MPKI:0.00
PC:1128e     Total:5973645      MisBP:0   MisRate:0.00%    MPKI:0.00
PC:113ee     Total:1      MisBP:0   MisRate:0.00%    MPKI:0.00
PC:113f0     Total:1      MisBP:0   MisRate:0.00%    MPKI:0.00
PC:113f2     Total:1      MisBP:0   MisRate:0.00%    MPKI:0.00
PC:113f4     Total:1      MisBP:0   MisRate:0.00%    MPKI:0.00
PC:111f4     Total:4343019      MisBP:0   MisRate:0.00%    MPKI:0.00
PC:11284     Total:6027611      MisBP:0   MisRate:0.00%    MPKI:0.00
PC:111fa     Total:429990      MisBP:0   MisRate:0.00%    MPKI:0.00
PC:113f8     Total:1      MisBP:0   MisRate:0.00%    MPKI:0.00
PC:111f8     Total:430656      MisBP:0   MisRate:0.00%    MPKI:0.00
PC:113fa     Total:1      MisBP:0   MisRate:0.00%    MPKI:0.00
PC:111fe     Total:429294      MisBP:0   MisRate:0.00%    MPKI:0.00
PC:111fc     Total:429724      MisBP:0   MisRate:0.00%    MPKI:0.00
PC:113fe     Total:1      MisBP:0   MisRate:0.00%    MPKI:0.00
PC:113de     Total:393      MisBP:0   MisRate:0.00%    MPKI:0.00
PC:1138e     Total:439      MisBP:0   MisRate:0.00%    MPKI:0.00
PC:113d8     Total:393      MisBP:0   MisRate:0.00%    MPKI:0.00
PC:11276     Total:6061303      MisBP:0   MisRate:0.00%    MPKI:0.00
PC:11374     Total:370      MisBP:0   MisRate:0.00%    MPKI:0.00
PC:113da     Total:393      MisBP:0   MisRate:0.00%    MPKI:0.00
PC:11278     Total:6060177      MisBP:0   MisRate:0.00%    MPKI:0.00
PC:1127a     Total:6053382      MisBP:0   MisRate:0.00%    MPKI:0.00
PC:11378     Total:370      MisBP:0   MisRate:0.00%    MPKI:0.00
PC:11202     Total:427298      MisBP:0   MisRate:0.00%    MPKI:0.00
PC:1127c     Total:6051482      MisBP:0   MisRate:0.00%    MPKI:0.00
PC:113e0     Total:393      MisBP:0   MisRate:0.00%    MPKI:0.00
PC:1127e     Total:6046891      MisBP:0   MisRate:0.00%    MPKI:0.00
PC:1137c     Total:370      MisBP:0   MisRate:0.00%    MPKI:0.00
PC:113e2     Total:393      MisBP:0   MisRate:0.00%    MPKI:0.00
PC:11280     Total:6029097      MisBP:0   MisRate:0.00%    MPKI:0.00
PC:113e6     Total:391      MisBP:0   MisRate:0.00%    MPKI:0.00
PC:11212     Total:425353      MisBP:0   MisRate:0.00%    MPKI:0.00
PC:113ca     Total:450558      MisBP:0   MisRate:0.00%    MPKI:0.00
PC:113cc     Total:448472      MisBP:0   MisRate:0.00%    MPKI:0.00
PC:11200     Total:427525      MisBP:0   MisRate:0.00%    MPKI:0.00
PC:11204     Total:427291      MisBP:0   MisRate:0.00%    MPKI:0.00
PC:11208     Total:427343      MisBP:0   MisRate:0.00%    MPKI:0.00
PC:1120c     Total:427199      MisBP:0   MisRate:0.00%    MPKI:0.00
PC:1120e     Total:426533      MisBP:0   MisRate:0.00%    MPKI:0.00
PC:11210     Total:426045      MisBP:0   MisRate:0.00%    MPKI:0.00
PC:113c8     Total:450836      MisBP:0   MisRate:0.00%    MPKI:0.00
PC:11214     Total:424536      MisBP:0   MisRate:0.00%    MPKI:0.00
PC:11218     Total:424133      MisBP:0   MisRate:0.00%    MPKI:0.00
PC:1121a     Total:423305      MisBP:0   MisRate:0.00%    MPKI:0.00
PC:1121c     Total:422338      MisBP:0   MisRate:0.00%    MPKI:0.00
PC:1121e     Total:422057      MisBP:0   MisRate:0.00%    MPKI:0.00
PC:11222     Total:421525      MisBP:0   MisRate:0.00%    MPKI:0.00
PC:11226     Total:420472      MisBP:0   MisRate:0.00%    MPKI:0.00
PC:11292     Total:5966912      MisBP:0   MisRate:0.00%    MPKI:0.00
PC:113c6     Total:451231      MisBP:0   MisRate:0.00%    MPKI:0.00
PC:113c4     Total:452010      MisBP:0   MisRate:0.00%    MPKI:0.00
PC:113c2     Total:452185      MisBP:0   MisRate:0.00%    MPKI:0.00
PC:113c0     Total:452331      MisBP:0   MisRate:0.00%    MPKI:0.00
PC:113be     Total:458841      MisBP:0   MisRate:0.00%    MPKI:0.00
PC:113ba     Total:2350799      MisBP:0   MisRate:0.00%    MPKI:0.00
PC:113b6     Total:2354968      MisBP:0   MisRate:0.00%    MPKI:0.00
PC:113b4     Total:2358816      MisBP:0   MisRate:0.00%    MPKI:0.00
PC:113b2     Total:2393803      MisBP:0   MisRate:0.00%    MPKI:0.00
PC:113b0     Total:2402752      MisBP:0   MisRate:0.00%    MPKI:0.00
PC:113ac     Total:2416324      MisBP:0   MisRate:0.00%    MPKI:0.00
PC:113a8     Total:6493432      MisBP:0   MisRate:0.00%    MPKI:0.00
PC:113a4     Total:6503051      MisBP:0   MisRate:0.00%    MPKI:0.00
PC:113a2     Total:6520911      MisBP:0   MisRate:0.00%    MPKI:0.00
PC:11364     Total:381      MisBP:0   MisRate:0.00%    MPKI:0.00
PC:11232     Total:6397284      MisBP:0   MisRate:0.00%    MPKI:0.00
PC:1124a     Total:6362789      MisBP:0   MisRate:0.00%    MPKI:0.00
PC:11246     Total:6364945      MisBP:0   MisRate:0.00%    MPKI:0.00
PC:11242     Total:6366150      MisBP:0   MisRate:0.00%    MPKI:0.00
PC:1123e     Total:6368399      MisBP:0   MisRate:0.00%    MPKI:0.00
PC:1123a     Total:6391986      MisBP:0   MisRate:0.00%    MPKI:0.00
PC:11238     Total:6392359      MisBP:0   MisRate:0.00%    MPKI:0.00
PC:11236     Total:6395674      MisBP:0   MisRate:0.00%    MPKI:0.00
PC:11234     Total:6396458      MisBP:0   MisRate:0.00%    MPKI:0.00
PC:1124e     Total:6360129      MisBP:0   MisRate:0.00%    MPKI:0.00
PC:1122e     Total:6417189      MisBP:0   MisRate:0.00%    MPKI:0.00
PC:1122c     Total:6418158      MisBP:0   MisRate:0.00%    MPKI:0.00
PC:113a0     Total:6532363      MisBP:0   MisRate:0.00%    MPKI:0.00
PC:112a0     Total:407163      MisBP:0   MisRate:0.00%    MPKI:0.00
PC:113d0     Total:405657      MisBP:0   MisRate:0.00%    MPKI:0.00
PC:11370     Total:371      MisBP:0   MisRate:0.00%    MPKI:0.00
PC:1136c     Total:379      MisBP:0   MisRate:0.00%    MPKI:0.00
PC:1126e     Total:6069006      MisBP:0   MisRate:0.00%    MPKI:0.00
PC:11252     Total:6355322      MisBP:0   MisRate:0.00%    MPKI:0.00
PC:11254     Total:6347815      MisBP:0   MisRate:0.00%    MPKI:0.00
PC:113d2     Total:405638      MisBP:0   MisRate:0.00%    MPKI:0.00
PC:113e4     Total:392      MisBP:0   MisRate:0.00%    MPKI:0.00
PC:113e8     Total:1      MisBP:0   MisRate:0.00%    MPKI:0.00
PC:113ec     Total:1      MisBP:0   MisRate:0.00%    MPKI:0.00
PC:1122a     Total:420192      MisBP:0   MisRate:0.00%    MPKI:0.00
PC:11390     Total:6821565      MisBP:0   MisRate:0.00%    MPKI:0.00
PC:11380     Total:364      MisBP:0   MisRate:0.00%    MPKI:0.00
PC:11382     Total:441      MisBP:0   MisRate:0.00%    MPKI:0.00
PC:11384     Total:441      MisBP:0   MisRate:0.00%    MPKI:0.00
PC:11386     Total:440      MisBP:0   MisRate:0.00%    MPKI:0.00
PC:11388     Total:440      MisBP:0   MisRate:0.00%    MPKI:0.00
PC:1138a     Total:439      MisBP:0   MisRate:0.00%    MPKI:0.00
PC:1138c     Total:439      MisBP:0   MisRate:0.00%    MPKI:0.00
PC:11296     Total:5965625      MisBP:0   MisRate:0.00%    MPKI:0.00
PC:11260     Total:6097849      MisBP:0   MisRate:0.00%    MPKI:0.00
PC:1129a     Total:5953718      MisBP:0   MisRate:0.00%    MPKI:0.00
PC:11398     Total:7143198      MisBP:0   MisRate:0.00%    MPKI:0.00
PC:1135c     Total:384      MisBP:0   MisRate:0.00%    MPKI:0.00
PC:11298     Total:5962581      MisBP:0   MisRate:0.00%    MPKI:0.00
PC:11396     Total:7159063      MisBP:0   MisRate:0.00%    MPKI:0.00
PC:1125c     Total:6271046      MisBP:0   MisRate:0.00%    MPKI:0.00
PC:1135a     Total:390      MisBP:0   MisRate:0.00%    MPKI:0.00
PC:1136a     Total:379      MisBP:0   MisRate:0.00%    MPKI:0.00
PC:11394     Total:7186954      MisBP:0   MisRate:0.00%    MPKI:0.00
PC:113d6     Total:395      MisBP:0   MisRate:0.00%    MPKI:0.00
PC:11274     Total:6063414      MisBP:0   MisRate:0.00%    MPKI:0.00
PC:11372     Total:370      MisBP:0   MisRate:0.00%    MPKI:0.00
PC:1125a     Total:6283588      MisBP:0   MisRate:0.00%    MPKI:0.00
PC:11358     Total:390      MisBP:0   MisRate:0.00%    MPKI:0.00
PC:11272     Total:6064643      MisBP:0   MisRate:0.00%    MPKI:0.00
PC:1129e     Total:6021346      MisBP:0   MisRate:0.00%    MPKI:0.00
PC:11368     Total:379      MisBP:0   MisRate:0.00%    MPKI:0.00
PC:1126a     Total:6081380      MisBP:0   MisRate:0.00%    MPKI:0.00
PC:11268     Total:6085324      MisBP:0   MisRate:0.00%    MPKI:0.00
PC:11264     Total:6091405      MisBP:0   MisRate:0.00%    MPKI:0.00
PC:11362     Total:381      MisBP:0   MisRate:0.00%    MPKI:0.00
PC:1139c     Total:7120488      MisBP:0   MisRate:0.00%    MPKI:0.00
PC:11262     Total:6096896      MisBP:0   MisRate:0.00%    MPKI:0.00
PC:11360     Total:381      MisBP:0   MisRate:0.00%    MPKI:0.00
PC:1126c     Total:6071299      MisBP:0   MisRate:0.00%    MPKI:0.00
PC:1129c     Total:6022617      MisBP:0   MisRate:0.00%    MPKI:0.00
PC:1139a     Total:7134944      MisBP:0   MisRate:0.00%    MPKI:0.00
PC:112a2     Total:2849599      MisBP:3   MisRate:0.00%    MPKI:0.00
PC:113d4     Total:405618      MisBP:43   MisRate:0.01%    MPKI:0.00
PC:11392     Total:6799127      MisBP:237   MisRate:0.00%    MPKI:0.00
PC:1128c     Total:6025160      MisBP:20430   MisRate:0.34%    MPKI:0.07
PC:11258     Total:6336557      MisBP:21748   MisRate:0.34%    MPKI:0.07
PC:1139e     Total:7101301      MisBP:54113   MisRate:0.76%    MPKI:0.17
PC:113bc     Total:2347442      MisBP:85750   MisRate:3.65%    MPKI:0.28
PC:1125e     Total:6265952      MisBP:203786   MisRate:3.25%    MPKI:0.66
PC:113aa     Total:6440097      MisBP:312765   MisRate:4.86%    MPKI:1.01
Totfetch:392000592  TotInsts:310000001  TotMis : inf%   MPKI : 2.25
=============finish sim!!!!!!=============
Done running SimPoint!
