Global frequency set at 1000000000000 ticks per second
 Register [printBranch()] ExitCallback !!!!!!! 
gem5 Simulator System.  https://www.gem5.org
gem5 is copyrighted software; use the --copyright option for details.

gem5 version 22.0.0.2
gem5 compiled Sep  7 2022 00:42:18
gem5 started Sep  7 2022 22:40:15
gem5 executing on a100, pid 3291526
command line: /data/zxf/gem5/gem5-prof/build/ARM/gem5.fast --outdir=/data/zxf/checkpoint/spec2006/458.sjeng/prof/sjeng_ckp_3 /data/zxf/gem5/gem5-prof/configs/example/se.py --cpu-type O3CPU --cpu-clock 1GHz --num-cpu 1 --l1d-hwp-type=BOPPrefetcher --caches --l2cache --l1i_size 32kB --l1d_size 32kB --l2_size 1MB --l1i_assoc 8 --l1d_assoc 8 --l2_assoc 16 --cacheline_size 64 --mem-type DDR3_2133_8x8 --mem-size 16GB --restore-simpoint-checkpoint -r 3 --checkpoint-dir /data/zxf/checkpoint/spec2006/458.sjeng/ckpt -c sjeng_base.gcc41-64bit -o ref.txt

info: Standard input is not a terminal, disabling listeners.
Resuming from /data/zxf/checkpoint/spec2006/458.sjeng/ckpt/cpt.simpoint_02_inst_11990000000_weight_0.074074_interval_300000000_warmup_10000000
Resuming from SimPoint #2, start_inst:11990000000, weight:0.074074, interval:300000000, warmup:10000000
Switch at curTick count:10000
Switched CPUS @ tick 7861235917500
[(<m5.objects.ArmCPU.ArmAtomicSimpleCPU object at 0x7f6f101d4970>, <m5.objects.ArmCPU.ArmO3CPU object at 0x7f6f101ecbe0>)]
switching cpus



+++++++++++++++++++++++++zxf print simpoint+++++++++++++++++++++++++++
Warmed up! Dumping and resetting stats!


=============start sim!!!!!!=============
 9  1.27   2638104 Bxg7 !
PC:15aa2     Total:13031      MisBP:0   MisRate:0.00%    MPKI:0.00
PC:15a84     Total:32845      MisBP:0   MisRate:0.00%    MPKI:0.00
PC:15a8e     Total:13914      MisBP:0   MisRate:0.00%    MPKI:0.00
PC:15a90     Total:13914      MisBP:0   MisRate:0.00%    MPKI:0.00
PC:15a92     Total:13914      MisBP:0   MisRate:0.00%    MPKI:0.00
PC:15a94     Total:13914      MisBP:0   MisRate:0.00%    MPKI:0.00
PC:15a96     Total:13031      MisBP:0   MisRate:0.00%    MPKI:0.00
PC:15a98     Total:13031      MisBP:0   MisRate:0.00%    MPKI:0.00
PC:15a9a     Total:13031      MisBP:0   MisRate:0.00%    MPKI:0.00
PC:15a9c     Total:13031      MisBP:0   MisRate:0.00%    MPKI:0.00
PC:15a9e     Total:13031      MisBP:0   MisRate:0.00%    MPKI:0.00
PC:15aa0     Total:13031      MisBP:0   MisRate:0.00%    MPKI:0.00
PC:15a82     Total:32845      MisBP:0   MisRate:0.00%    MPKI:0.00
PC:15aa4     Total:13041      MisBP:0   MisRate:0.00%    MPKI:0.00
PC:15aa8     Total:12527      MisBP:0   MisRate:0.00%    MPKI:0.00
PC:15aaa     Total:12527      MisBP:0   MisRate:0.00%    MPKI:0.00
PC:15aae     Total:12527      MisBP:0   MisRate:0.00%    MPKI:0.00
PC:15ab0     Total:12527      MisBP:0   MisRate:0.00%    MPKI:0.00
PC:15ab4     Total:56391      MisBP:0   MisRate:0.00%    MPKI:0.00
PC:15ab8     Total:28195      MisBP:0   MisRate:0.00%    MPKI:0.00
PC:15aba     Total:28195      MisBP:0   MisRate:0.00%    MPKI:0.00
PC:15abe     Total:27781      MisBP:0   MisRate:0.00%    MPKI:0.00
PC:15ac2     Total:6245      MisBP:0   MisRate:0.00%    MPKI:0.00
PC:152fc     Total:5187      MisBP:0   MisRate:0.00%    MPKI:0.00
PC:15298     Total:6387      MisBP:0   MisRate:0.00%    MPKI:0.00
PC:1529c     Total:6387      MisBP:0   MisRate:0.00%    MPKI:0.00
PC:152a0     Total:6387      MisBP:0   MisRate:0.00%    MPKI:0.00
PC:152b6     Total:5751      MisBP:0   MisRate:0.00%    MPKI:0.00
PC:152be     Total:4113      MisBP:0   MisRate:0.00%    MPKI:0.00
PC:152ca     Total:4113      MisBP:0   MisRate:0.00%    MPKI:0.00
PC:152e2     Total:7522      MisBP:0   MisRate:0.00%    MPKI:0.00
PC:102a8     Total:5      MisBP:0   MisRate:0.00%    MPKI:0.00
PC:102ac     Total:5      MisBP:0   MisRate:0.00%    MPKI:0.00
PC:152f8     Total:5187      MisBP:0   MisRate:0.00%    MPKI:0.00
PC:102b6     Total:5      MisBP:0   MisRate:0.00%    MPKI:0.00
PC:200b0     Total:266136      MisBP:0   MisRate:0.00%    MPKI:0.00
PC:102ba     Total:9      MisBP:0   MisRate:0.00%    MPKI:0.00
PC:14dee     Total:4658      MisBP:0   MisRate:0.00%    MPKI:0.00
PC:14df2     Total:4658      MisBP:0   MisRate:0.00%    MPKI:0.00
PC:14df6     Total:4655      MisBP:0   MisRate:0.00%    MPKI:0.00
PC:14dfc     Total:4284      MisBP:0   MisRate:0.00%    MPKI:0.00
PC:14e92     Total:1028      MisBP:0   MisRate:0.00%    MPKI:0.00
PC:14e96     Total:1028      MisBP:0   MisRate:0.00%    MPKI:0.00
PC:14e9a     Total:1028      MisBP:0   MisRate:0.00%    MPKI:0.00
PC:14e9e     Total:1028      MisBP:0   MisRate:0.00%    MPKI:0.00
PC:14ea2     Total:1028      MisBP:0   MisRate:0.00%    MPKI:0.00
PC:2a0e2     Total:3      MisBP:0   MisRate:0.00%    MPKI:0.00
PC:2a0d0     Total:3      MisBP:0   MisRate:0.00%    MPKI:0.00
PC:1feae     Total:231061      MisBP:0   MisRate:0.00%    MPKI:0.00
PC:15c8c     Total:32583      MisBP:0   MisRate:0.00%    MPKI:0.00
PC:2a0d4     Total:3      MisBP:0   MisRate:0.00%    MPKI:0.00
PC:1feb2     Total:198620      MisBP:0   MisRate:0.00%    MPKI:0.00
PC:15c90     Total:32583      MisBP:0   MisRate:0.00%    MPKI:0.00
PC:2a0d8     Total:3      MisBP:0   MisRate:0.00%    MPKI:0.00
PC:1feb6     Total:198620      MisBP:0   MisRate:0.00%    MPKI:0.00
PC:15c94     Total:32582      MisBP:0   MisRate:0.00%    MPKI:0.00
PC:15c98     Total:32582      MisBP:0   MisRate:0.00%    MPKI:0.00
PC:2a0de     Total:3      MisBP:0   MisRate:0.00%    MPKI:0.00
PC:15c88     Total:32583      MisBP:0   MisRate:0.00%    MPKI:0.00
PC:1fec0     Total:406305      MisBP:0   MisRate:0.00%    MPKI:0.00
PC:15c9e     Total:28715      MisBP:0   MisRate:0.00%    MPKI:0.00
PC:2a0e6     Total:3      MisBP:0   MisRate:0.00%    MPKI:0.00
PC:15ca2     Total:28715      MisBP:0   MisRate:0.00%    MPKI:0.00
PC:2a0ea     Total:7      MisBP:0   MisRate:0.00%    MPKI:0.00
PC:15ca6     Total:28715      MisBP:0   MisRate:0.00%    MPKI:0.00
PC:2a0ee     Total:7      MisBP:0   MisRate:0.00%    MPKI:0.00
PC:15caa     Total:28715      MisBP:0   MisRate:0.00%    MPKI:0.00
PC:2a0f2     Total:7      MisBP:0   MisRate:0.00%    MPKI:0.00
PC:1fed0     Total:568765      MisBP:0   MisRate:0.00%    MPKI:0.00
PC:1fe92     Total:252117      MisBP:0   MisRate:0.00%    MPKI:0.00
PC:15e8e     Total:4984      MisBP:0   MisRate:0.00%    MPKI:0.00
PC:15e96     Total:4984      MisBP:0   MisRate:0.00%    MPKI:0.00
PC:200c6     Total:43855      MisBP:0   MisRate:0.00%    MPKI:0.00
PC:15ea4     Total:4958      MisBP:0   MisRate:0.00%    MPKI:0.00
PC:200da     Total:43855      MisBP:0   MisRate:0.00%    MPKI:0.00
PC:15eb8     Total:407      MisBP:0   MisRate:0.00%    MPKI:0.00
PC:1fe84     Total:256053      MisBP:0   MisRate:0.00%    MPKI:0.00
PC:15c62     Total:33337      MisBP:0   MisRate:0.00%    MPKI:0.00
PC:15c64     Total:33337      MisBP:0   MisRate:0.00%    MPKI:0.00
PC:15c68     Total:33337      MisBP:0   MisRate:0.00%    MPKI:0.00
PC:15c6c     Total:33337      MisBP:0   MisRate:0.00%    MPKI:0.00
PC:1528a     Total:6387      MisBP:0   MisRate:0.00%    MPKI:0.00
PC:15c70     Total:33337      MisBP:0   MisRate:0.00%    MPKI:0.00
PC:15c74     Total:33335      MisBP:0   MisRate:0.00%    MPKI:0.00
PC:1fe9a     Total:234444      MisBP:0   MisRate:0.00%    MPKI:0.00
PC:15c78     Total:33320      MisBP:0   MisRate:0.00%    MPKI:0.00
PC:1fe9c     Total:234436      MisBP:0   MisRate:0.00%    MPKI:0.00
PC:15c7a     Total:33320      MisBP:0   MisRate:0.00%    MPKI:0.00
PC:15c7e     Total:32670      MisBP:0   MisRate:0.00%    MPKI:0.00
PC:1fea4     Total:232381      MisBP:0   MisRate:0.00%    MPKI:0.00
PC:15c82     Total:32670      MisBP:0   MisRate:0.00%    MPKI:0.00
PC:2a0cc     Total:18      MisBP:0   MisRate:0.00%    MPKI:0.00
PC:4227e     Total:1      MisBP:0   MisRate:0.00%    MPKI:0.00
PC:42264     Total:1      MisBP:0   MisRate:0.00%    MPKI:0.00
PC:15016     Total:27608      MisBP:0   MisRate:0.00%    MPKI:0.00
PC:1501a     Total:27608      MisBP:0   MisRate:0.00%    MPKI:0.00
PC:4226c     Total:1      MisBP:0   MisRate:0.00%    MPKI:0.00
PC:1501e     Total:27608      MisBP:0   MisRate:0.00%    MPKI:0.00
PC:15020     Total:27608      MisBP:0   MisRate:0.00%    MPKI:0.00
PC:15022     Total:27608      MisBP:0   MisRate:0.00%    MPKI:0.00
PC:42274     Total:1      MisBP:0   MisRate:0.00%    MPKI:0.00
PC:15026     Total:27608      MisBP:0   MisRate:0.00%    MPKI:0.00
PC:1502c     Total:10397      MisBP:0   MisRate:0.00%    MPKI:0.00
PC:199f6     Total:11954      MisBP:0   MisRate:0.00%    MPKI:0.00
PC:15012     Total:27608      MisBP:0   MisRate:0.00%    MPKI:0.00
PC:1502e     Total:10394      MisBP:0   MisRate:0.00%    MPKI:0.00
PC:15030     Total:10394      MisBP:0   MisRate:0.00%    MPKI:0.00
PC:15032     Total:10394      MisBP:0   MisRate:0.00%    MPKI:0.00
PC:15034     Total:10394      MisBP:0   MisRate:0.00%    MPKI:0.00
PC:15036     Total:10394      MisBP:0   MisRate:0.00%    MPKI:0.00
PC:15038     Total:10394      MisBP:0   MisRate:0.00%    MPKI:0.00
PC:1503a     Total:10394      MisBP:0   MisRate:0.00%    MPKI:0.00
PC:1503c     Total:10287      MisBP:0   MisRate:0.00%    MPKI:0.00
PC:1503e     Total:10287      MisBP:0   MisRate:0.00%    MPKI:0.00
PC:15040     Total:10088      MisBP:0   MisRate:0.00%    MPKI:0.00
PC:14d90     Total:2828      MisBP:0   MisRate:0.00%    MPKI:0.00
PC:12ada     Total:49      MisBP:0   MisRate:0.00%    MPKI:0.00
PC:1ccfc     Total:1      MisBP:0   MisRate:0.00%    MPKI:0.00
PC:1d988     Total:14238      MisBP:0   MisRate:0.00%    MPKI:0.00
PC:1d992     Total:14238      MisBP:0   MisRate:0.00%    MPKI:0.00
PC:1d998     Total:14119      MisBP:0   MisRate:0.00%    MPKI:0.00
PC:1d99c     Total:14119      MisBP:0   MisRate:0.00%    MPKI:0.00
PC:1d9a0     Total:14119      MisBP:0   MisRate:0.00%    MPKI:0.00
PC:14d82     Total:2828      MisBP:0   MisRate:0.00%    MPKI:0.00
PC:14d86     Total:2828      MisBP:0   MisRate:0.00%    MPKI:0.00
PC:14d8a     Total:2828      MisBP:0   MisRate:0.00%    MPKI:0.00
PC:14d8c     Total:2828      MisBP:0   MisRate:0.00%    MPKI:0.00
PC:15042     Total:10088      MisBP:0   MisRate:0.00%    MPKI:0.00
PC:14d94     Total:2828      MisBP:0   MisRate:0.00%    MPKI:0.00
PC:14d98     Total:2828      MisBP:0   MisRate:0.00%    MPKI:0.00
PC:14d9e     Total:1201      MisBP:0   MisRate:0.00%    MPKI:0.00
PC:14da2     Total:1201      MisBP:0   MisRate:0.00%    MPKI:0.00
PC:14da6     Total:1201      MisBP:0   MisRate:0.00%    MPKI:0.00
PC:14daa     Total:1201      MisBP:0   MisRate:0.00%    MPKI:0.00
PC:14dae     Total:1201      MisBP:0   MisRate:0.00%    MPKI:0.00
PC:14db4     Total:1165      MisBP:0   MisRate:0.00%    MPKI:0.00
PC:14db8     Total:1130      MisBP:0   MisRate:0.00%    MPKI:0.00
PC:14dbc     Total:1093      MisBP:0   MisRate:0.00%    MPKI:0.00
PC:14f72     Total:290      MisBP:0   MisRate:0.00%    MPKI:0.00
PC:1512e     Total:1      MisBP:0   MisRate:0.00%    MPKI:0.00
PC:15132     Total:1      MisBP:0   MisRate:0.00%    MPKI:0.00
PC:15136     Total:1      MisBP:0   MisRate:0.00%    MPKI:0.00
PC:1513a     Total:1      MisBP:0   MisRate:0.00%    MPKI:0.00
PC:1513c     Total:1      MisBP:0   MisRate:0.00%    MPKI:0.00
PC:14f5a     Total:298      MisBP:0   MisRate:0.00%    MPKI:0.00
PC:14f5e     Total:298      MisBP:0   MisRate:0.00%    MPKI:0.00
PC:14f62     Total:298      MisBP:0   MisRate:0.00%    MPKI:0.00
PC:14f66     Total:298      MisBP:0   MisRate:0.00%    MPKI:0.00
PC:14f6a     Total:298      MisBP:0   MisRate:0.00%    MPKI:0.00
PC:14f6e     Total:290      MisBP:0   MisRate:0.00%    MPKI:0.00
PC:1512a     Total:1      MisBP:0   MisRate:0.00%    MPKI:0.00
PC:14f74     Total:237      MisBP:0   MisRate:0.00%    MPKI:0.00
PC:14f78     Total:237      MisBP:0   MisRate:0.00%    MPKI:0.00
PC:14f7a     Total:237      MisBP:0   MisRate:0.00%    MPKI:0.00
PC:14f7c     Total:5754      MisBP:0   MisRate:0.00%    MPKI:0.00
PC:14f7e     Total:5149      MisBP:0   MisRate:0.00%    MPKI:0.00
PC:14f82     Total:5149      MisBP:0   MisRate:0.00%    MPKI:0.00
PC:14f84     Total:5149      MisBP:0   MisRate:0.00%    MPKI:0.00
PC:14f86     Total:5149      MisBP:0   MisRate:0.00%    MPKI:0.00
PC:14f88     Total:25377      MisBP:0   MisRate:0.00%    MPKI:0.00
PC:15286     Total:6387      MisBP:0   MisRate:0.00%    MPKI:0.00
PC:15104     Total:9431      MisBP:0   MisRate:0.00%    MPKI:0.00
PC:15044     Total:10087      MisBP:0   MisRate:0.00%    MPKI:0.00
PC:15046     Total:10087      MisBP:0   MisRate:0.00%    MPKI:0.00
PC:15048     Total:10087      MisBP:0   MisRate:0.00%    MPKI:0.00
PC:1504a     Total:10087      MisBP:0   MisRate:0.00%    MPKI:0.00
PC:1504c     Total:10087      MisBP:0   MisRate:0.00%    MPKI:0.00
PC:1504e     Total:10087      MisBP:0   MisRate:0.00%    MPKI:0.00
PC:15050     Total:8644      MisBP:0   MisRate:0.00%    MPKI:0.00
PC:15052     Total:8644      MisBP:0   MisRate:0.00%    MPKI:0.00
PC:15054     Total:8642      MisBP:0   MisRate:0.00%    MPKI:0.00
PC:15056     Total:8642      MisBP:0   MisRate:0.00%    MPKI:0.00
PC:15100     Total:9431      MisBP:0   MisRate:0.00%    MPKI:0.00
PC:15cae     Total:28715      MisBP:0   MisRate:0.00%    MPKI:0.00
PC:15108     Total:9431      MisBP:0   MisRate:0.00%    MPKI:0.00
PC:1510a     Total:1      MisBP:0   MisRate:0.00%    MPKI:0.00
PC:1510e     Total:1      MisBP:0   MisRate:0.00%    MPKI:0.00
PC:15112     Total:1      MisBP:0   MisRate:0.00%    MPKI:0.00
PC:15116     Total:1      MisBP:0   MisRate:0.00%    MPKI:0.00
PC:1511a     Total:1      MisBP:0   MisRate:0.00%    MPKI:0.00
PC:1511c     Total:1      MisBP:0   MisRate:0.00%    MPKI:0.00
PC:15120     Total:1      MisBP:0   MisRate:0.00%    MPKI:0.00
PC:15124     Total:1      MisBP:0   MisRate:0.00%    MPKI:0.00
PC:15126     Total:1      MisBP:0   MisRate:0.00%    MPKI:0.00
PC:15738     Total:17528      MisBP:0   MisRate:0.00%    MPKI:0.00
PC:15716     Total:17914      MisBP:0   MisRate:0.00%    MPKI:0.00
PC:15718     Total:17914      MisBP:0   MisRate:0.00%    MPKI:0.00
PC:1571c     Total:17914      MisBP:0   MisRate:0.00%    MPKI:0.00
PC:15720     Total:17911      MisBP:0   MisRate:0.00%    MPKI:0.00
PC:15724     Total:17911      MisBP:0   MisRate:0.00%    MPKI:0.00
PC:15728     Total:17529      MisBP:0   MisRate:0.00%    MPKI:0.00
PC:1572c     Total:17529      MisBP:0   MisRate:0.00%    MPKI:0.00
PC:15730     Total:17529      MisBP:0   MisRate:0.00%    MPKI:0.00
PC:15734     Total:17528      MisBP:0   MisRate:0.00%    MPKI:0.00
PC:1525a     Total:1543      MisBP:0   MisRate:0.00%    MPKI:0.00
PC:338c0     Total:186      MisBP:0   MisRate:0.00%    MPKI:0.00
PC:15712     Total:17914      MisBP:0   MisRate:0.00%    MPKI:0.00
PC:1525e     Total:1543      MisBP:0   MisRate:0.00%    MPKI:0.00
PC:338c4     Total:31      MisBP:0   MisRate:0.00%    MPKI:0.00
PC:1573c     Total:15979      MisBP:0   MisRate:0.00%    MPKI:0.00
PC:15262     Total:1542      MisBP:0   MisRate:0.00%    MPKI:0.00
PC:338c8     Total:31      MisBP:0   MisRate:0.00%    MPKI:0.00
PC:15740     Total:14771      MisBP:0   MisRate:0.00%    MPKI:0.00
PC:15266     Total:964      MisBP:0   MisRate:0.00%    MPKI:0.00
PC:338cc     Total:31      MisBP:0   MisRate:0.00%    MPKI:0.00
PC:15744     Total:14770      MisBP:0   MisRate:0.00%    MPKI:0.00
PC:1526a     Total:963      MisBP:0   MisRate:0.00%    MPKI:0.00
PC:167d0     Total:38827      MisBP:0   MisRate:0.00%    MPKI:0.00
PC:167b2     Total:45034      MisBP:0   MisRate:0.00%    MPKI:0.00
PC:167b6     Total:45015      MisBP:0   MisRate:0.00%    MPKI:0.00
PC:167ba     Total:45128      MisBP:0   MisRate:0.00%    MPKI:0.00
PC:167bc     Total:45128      MisBP:0   MisRate:0.00%    MPKI:0.00
PC:167be     Total:38762      MisBP:0   MisRate:0.00%    MPKI:0.00
PC:167c2     Total:38826      MisBP:0   MisRate:0.00%    MPKI:0.00
PC:167c4     Total:38826      MisBP:0   MisRate:0.00%    MPKI:0.00
PC:167c6     Total:38827      MisBP:0   MisRate:0.00%    MPKI:0.00
PC:167c8     Total:38827      MisBP:0   MisRate:0.00%    MPKI:0.00
PC:167ca     Total:38827      MisBP:0   MisRate:0.00%    MPKI:0.00
PC:167ce     Total:38827      MisBP:0   MisRate:0.00%    MPKI:0.00
PC:338d0     Total:31      MisBP:0   MisRate:0.00%    MPKI:0.00
PC:167d2     Total:38304      MisBP:0   MisRate:0.00%    MPKI:0.00
PC:167d6     Total:38305      MisBP:0   MisRate:0.00%    MPKI:0.00
PC:167d8     Total:38305      MisBP:0   MisRate:0.00%    MPKI:0.00
PC:167dc     Total:38305      MisBP:0   MisRate:0.00%    MPKI:0.00
PC:167de     Total:38305      MisBP:0   MisRate:0.00%    MPKI:0.00
PC:167e0     Total:38303      MisBP:0   MisRate:0.00%    MPKI:0.00
PC:167e4     Total:38303      MisBP:0   MisRate:0.00%    MPKI:0.00
PC:167e6     Total:38303      MisBP:0   MisRate:0.00%    MPKI:0.00
PC:167e8     Total:263260      MisBP:0   MisRate:0.00%    MPKI:0.00
PC:1570e     Total:17914      MisBP:0   MisRate:0.00%    MPKI:0.00
PC:41292     Total:4      MisBP:0   MisRate:0.00%    MPKI:0.00
PC:15296     Total:6387      MisBP:0   MisRate:0.00%    MPKI:0.00
PC:338fc     Total:16      MisBP:0   MisRate:0.00%    MPKI:0.00
PC:15772     Total:49      MisBP:0   MisRate:0.00%    MPKI:0.00
PC:15776     Total:49      MisBP:0   MisRate:0.00%    MPKI:0.00
PC:1577a     Total:49      MisBP:0   MisRate:0.00%    MPKI:0.00
PC:1577c     Total:48      MisBP:0   MisRate:0.00%    MPKI:0.00
PC:33908     Total:15      MisBP:0   MisRate:0.00%    MPKI:0.00
PC:1577e     Total:48      MisBP:0   MisRate:0.00%    MPKI:0.00
PC:1e0b8     Total:8107      MisBP:0   MisRate:0.00%    MPKI:0.00
PC:1e0c4     Total:7410      MisBP:0   MisRate:0.00%    MPKI:0.00
PC:19082     Total:20603      MisBP:0   MisRate:0.00%    MPKI:0.00
PC:15770     Total:49      MisBP:0   MisRate:0.00%    MPKI:0.00
PC:1e0c8     Total:7410      MisBP:0   MisRate:0.00%    MPKI:0.00
PC:19086     Total:20603      MisBP:0   MisRate:0.00%    MPKI:0.00
PC:41296     Total:14      MisBP:0   MisRate:0.00%    MPKI:0.00
PC:1e0ce     Total:1      MisBP:0   MisRate:0.00%    MPKI:0.00
PC:1908c     Total:20603      MisBP:0   MisRate:0.00%    MPKI:0.00
PC:1e0d4     Total:1      MisBP:0   MisRate:0.00%    MPKI:0.00
PC:412a2     Total:14      MisBP:0   MisRate:0.00%    MPKI:0.00
PC:1e0d8     Total:1      MisBP:0   MisRate:0.00%    MPKI:0.00
PC:19096     Total:2638      MisBP:0   MisRate:0.00%    MPKI:0.00
PC:18a1e     Total:948      MisBP:0   MisRate:0.00%    MPKI:0.00
PC:1575e     Total:5240      MisBP:0   MisRate:0.00%    MPKI:0.00
PC:15748     Total:14770      MisBP:0   MisRate:0.00%    MPKI:0.00
PC:1574c     Total:14770      MisBP:0   MisRate:0.00%    MPKI:0.00
PC:338d8     Total:64      MisBP:0   MisRate:0.00%    MPKI:0.00
PC:15752     Total:5245      MisBP:0   MisRate:0.00%    MPKI:0.00
PC:15278     Total:8613      MisBP:0   MisRate:0.00%    MPKI:0.00
PC:338de     Total:32      MisBP:0   MisRate:0.00%    MPKI:0.00
PC:15756     Total:5245      MisBP:0   MisRate:0.00%    MPKI:0.00
PC:1527c     Total:8603      MisBP:0   MisRate:0.00%    MPKI:0.00
PC:1575a     Total:5245      MisBP:0   MisRate:0.00%    MPKI:0.00
PC:15280     Total:7484      MisBP:0   MisRate:0.00%    MPKI:0.00
PC:338e6     Total:39      MisBP:0   MisRate:0.00%    MPKI:0.00
PC:167b0     Total:15246      MisBP:0   MisRate:0.00%    MPKI:0.00
PC:15284     Total:37420      MisBP:0   MisRate:0.00%    MPKI:0.00
PC:338ea     Total:14      MisBP:0   MisRate:0.00%    MPKI:0.00
PC:15760     Total:49      MisBP:0   MisRate:0.00%    MPKI:0.00
PC:15764     Total:49      MisBP:0   MisRate:0.00%    MPKI:0.00
PC:15768     Total:49      MisBP:0   MisRate:0.00%    MPKI:0.00
PC:1528e     Total:6387      MisBP:0   MisRate:0.00%    MPKI:0.00
PC:338f4     Total:34      MisBP:0   MisRate:0.00%    MPKI:0.00
PC:1576c     Total:49      MisBP:0   MisRate:0.00%    MPKI:0.00
PC:15292     Total:6387      MisBP:0   MisRate:0.00%    MPKI:0.00
PC:338f8     Total:17      MisBP:0   MisRate:0.00%    MPKI:0.00
PC:15cea     Total:665      MisBP:0   MisRate:0.00%    MPKI:0.00
PC:15cd8     Total:703      MisBP:0   MisRate:0.00%    MPKI:0.00
PC:2a120     Total:80      MisBP:0   MisRate:0.00%    MPKI:0.00
PC:15cdc     Total:691      MisBP:0   MisRate:0.00%    MPKI:0.00
PC:2a124     Total:3      MisBP:0   MisRate:0.00%    MPKI:0.00
PC:15ce0     Total:691      MisBP:0   MisRate:0.00%    MPKI:0.00
PC:2a126     Total:3      MisBP:0   MisRate:0.00%    MPKI:0.00
PC:1ff04     Total:259806      MisBP:0   MisRate:0.00%    MPKI:0.00
PC:15ce4     Total:665      MisBP:0   MisRate:0.00%    MPKI:0.00
PC:1ff0a     Total:258287      MisBP:0   MisRate:0.00%    MPKI:0.00
PC:15ce8     Total:665      MisBP:0   MisRate:0.00%    MPKI:0.00
PC:2a12e     Total:2      MisBP:0   MisRate:0.00%    MPKI:0.00
PC:2a11c     Total:16      MisBP:0   MisRate:0.00%    MPKI:0.00
PC:1ff10     Total:241961      MisBP:0   MisRate:0.00%    MPKI:0.00
PC:15cee     Total:665      MisBP:0   MisRate:0.00%    MPKI:0.00
PC:2a134     Total:2      MisBP:0   MisRate:0.00%    MPKI:0.00
PC:15cf0     Total:665      MisBP:0   MisRate:0.00%    MPKI:0.00
PC:2a136     Total:2      MisBP:0   MisRate:0.00%    MPKI:0.00
PC:1ff14     Total:235092      MisBP:0   MisRate:0.00%    MPKI:0.00
PC:15cf2     Total:2790      MisBP:0   MisRate:0.00%    MPKI:0.00
PC:15cf4     Total:2790      MisBP:0   MisRate:0.00%    MPKI:0.00
PC:2a13c     Total:2      MisBP:0   MisRate:0.00%    MPKI:0.00
PC:15cf8     Total:2790      MisBP:0   MisRate:0.00%    MPKI:0.00
PC:15cc4     Total:26645      MisBP:0   MisRate:0.00%    MPKI:0.00
PC:2a0f4     Total:7      MisBP:0   MisRate:0.00%    MPKI:0.00
PC:1fed2     Total:568764      MisBP:0   MisRate:0.00%    MPKI:0.00
PC:2a0f8     Total:16      MisBP:0   MisRate:0.00%    MPKI:0.00
PC:15cb4     Total:28354      MisBP:0   MisRate:0.00%    MPKI:0.00
PC:2a0fc     Total:16      MisBP:0   MisRate:0.00%    MPKI:0.00
PC:15cb8     Total:27750      MisBP:0   MisRate:0.00%    MPKI:0.00
PC:2a100     Total:15      MisBP:0   MisRate:0.00%    MPKI:0.00
PC:15cbc     Total:27747      MisBP:0   MisRate:0.00%    MPKI:0.00
PC:2a104     Total:15      MisBP:0   MisRate:0.00%    MPKI:0.00
PC:15cc0     Total:26645      MisBP:0   MisRate:0.00%    MPKI:0.00
PC:2a108     Total:15      MisBP:0   MisRate:0.00%    MPKI:0.00
PC:2a13e     Total:2      MisBP:0   MisRate:0.00%    MPKI:0.00
PC:2a10a     Total:15      MisBP:0   MisRate:0.00%    MPKI:0.00
PC:1fee8     Total:73174      MisBP:0   MisRate:0.00%    MPKI:0.00
PC:2a10e     Total:15      MisBP:0   MisRate:0.00%    MPKI:0.00
PC:1feec     Total:72893      MisBP:0   MisRate:0.00%    MPKI:0.00
PC:15cca     Total:1546      MisBP:0   MisRate:0.00%    MPKI:0.00
PC:2a110     Total:13      MisBP:0   MisRate:0.00%    MPKI:0.00
PC:2a114     Total:13      MisBP:0   MisRate:0.00%    MPKI:0.00
PC:15cd0     Total:703      MisBP:0   MisRate:0.00%    MPKI:0.00
PC:2a118     Total:12      MisBP:0   MisRate:0.00%    MPKI:0.00
PC:15cd4     Total:703      MisBP:0   MisRate:0.00%    MPKI:0.00
PC:1678a     Total:16137      MisBP:0   MisRate:0.00%    MPKI:0.00
PC:1dec2     Total:10278      MisBP:0   MisRate:0.00%    MPKI:0.00
PC:1dec6     Total:10277      MisBP:0   MisRate:0.00%    MPKI:0.00
PC:18e84     Total:28087      MisBP:0   MisRate:0.00%    MPKI:0.00
PC:1deca     Total:10273      MisBP:0   MisRate:0.00%    MPKI:0.00
PC:18e88     Total:28087      MisBP:0   MisRate:0.00%    MPKI:0.00
PC:1dee8     Total:11436      MisBP:0   MisRate:0.00%    MPKI:0.00
PC:1def2     Total:11398      MisBP:0   MisRate:0.00%    MPKI:0.00
PC:1df2c     Total:2      MisBP:0   MisRate:0.00%    MPKI:0.00
PC:16780     Total:16137      MisBP:0   MisRate:0.00%    MPKI:0.00
PC:16784     Total:16137      MisBP:0   MisRate:0.00%    MPKI:0.00
PC:16786     Total:16137      MisBP:0   MisRate:0.00%    MPKI:0.00
PC:18fc8     Total:2338      MisBP:0   MisRate:0.00%    MPKI:0.00
PC:1678c     Total:16137      MisBP:0   MisRate:0.00%    MPKI:0.00
PC:16790     Total:16137      MisBP:0   MisRate:0.00%    MPKI:0.00
PC:16794     Total:16137      MisBP:0   MisRate:0.00%    MPKI:0.00
PC:16796     Total:16137      MisBP:0   MisRate:0.00%    MPKI:0.00
PC:1679a     Total:15246      MisBP:0   MisRate:0.00%    MPKI:0.00
PC:1679e     Total:15246      MisBP:0   MisRate:0.00%    MPKI:0.00
PC:167a2     Total:15246      MisBP:0   MisRate:0.00%    MPKI:0.00
PC:167a6     Total:15246      MisBP:0   MisRate:0.00%    MPKI:0.00
PC:167aa     Total:15246      MisBP:0   MisRate:0.00%    MPKI:0.00
PC:167ac     Total:15246      MisBP:0   MisRate:0.00%    MPKI:0.00
PC:2303e     Total:3462      MisBP:0   MisRate:0.00%    MPKI:0.00
PC:1ff1c     Total:233148      MisBP:0   MisRate:0.00%    MPKI:0.00
PC:15cfa     Total:2790      MisBP:0   MisRate:0.00%    MPKI:0.00
PC:2a140     Total:1      MisBP:0   MisRate:0.00%    MPKI:0.00
PC:15cfc     Total:2790      MisBP:0   MisRate:0.00%    MPKI:0.00
PC:2a142     Total:1      MisBP:0   MisRate:0.00%    MPKI:0.00
PC:15cfe     Total:11089      MisBP:0   MisRate:0.00%    MPKI:0.00
PC:1dd1e     Total:14120      MisBP:0   MisRate:0.00%    MPKI:0.00
PC:1dd22     Total:14120      MisBP:0   MisRate:0.00%    MPKI:0.00
PC:1dd2c     Total:14120      MisBP:0   MisRate:0.00%    MPKI:0.00
PC:1dd30     Total:13906      MisBP:0   MisRate:0.00%    MPKI:0.00
PC:1dd46     Total:11980      MisBP:0   MisRate:0.00%    MPKI:0.00
PC:12c74     Total:3900      MisBP:0   MisRate:0.00%    MPKI:0.00
PC:18fba     Total:2636      MisBP:0   MisRate:0.00%    MPKI:0.00
PC:23042     Total:3462      MisBP:0   MisRate:0.00%    MPKI:0.00
PC:1e000     Total:4739      MisBP:0   MisRate:0.00%    MPKI:0.00
PC:18fbe     Total:2630      MisBP:0   MisRate:0.00%    MPKI:0.00
PC:18e22     Total:568751      MisBP:0   MisRate:0.00%    MPKI:0.00
PC:23044     Total:3462      MisBP:0   MisRate:0.00%    MPKI:0.00
PC:1e002     Total:4739      MisBP:0   MisRate:0.00%    MPKI:0.00
PC:18fc0     Total:2338      MisBP:0   MisRate:0.00%    MPKI:0.00
PC:18e2a     Total:596891      MisBP:0   MisRate:0.00%    MPKI:0.00
PC:2304c     Total:3431      MisBP:0   MisRate:0.00%    MPKI:0.00
PC:185b4     Total:8884      MisBP:0   MisRate:0.00%    MPKI:0.00
PC:1d6c6     Total:7872      MisBP:0   MisRate:0.00%    MPKI:0.00
PC:18684     Total:589      MisBP:0   MisRate:0.00%    MPKI:0.00
PC:1874a     Total:49829      MisBP:0   MisRate:0.00%    MPKI:0.00
PC:1d78c     Total:9048      MisBP:0   MisRate:0.00%    MPKI:0.00
PC:1fe88     Total:256049      MisBP:0   MisRate:0.00%    MPKI:0.00
PC:15e04     Total:6372      MisBP:0   MisRate:0.00%    MPKI:0.00
PC:1d6ce     Total:94808      MisBP:0   MisRate:0.00%    MPKI:0.00
PC:1868c     Total:589      MisBP:0   MisRate:0.00%    MPKI:0.00
PC:18014     Total:47906      MisBP:0   MisRate:0.00%    MPKI:0.00
PC:4089c     Total:18      MisBP:0   MisRate:0.00%    MPKI:0.00
PC:18752     Total:48806      MisBP:0   MisRate:0.00%    MPKI:0.00
PC:1d788     Total:9048      MisBP:0   MisRate:0.00%    MPKI:0.00
PC:227d6     Total:4526      MisBP:0   MisRate:0.00%    MPKI:0.00
PC:1fe8c     Total:256024      MisBP:0   MisRate:0.00%    MPKI:0.00
PC:1d6d0     Total:94808      MisBP:0   MisRate:0.00%    MPKI:0.00
PC:1868e     Total:589      MisBP:0   MisRate:0.00%    MPKI:0.00
PC:1d6d6     Total:84237      MisBP:0   MisRate:0.00%    MPKI:0.00
PC:18694     Total:589      MisBP:0   MisRate:0.00%    MPKI:0.00
PC:408a4     Total:18      MisBP:0   MisRate:0.00%    MPKI:0.00
PC:15e10     Total:6372      MisBP:0   MisRate:0.00%    MPKI:0.00
PC:1d6da     Total:84237      MisBP:0   MisRate:0.00%    MPKI:0.00
PC:408a8     Total:18      MisBP:0   MisRate:0.00%    MPKI:0.00
PC:1d6ba     Total:8411      MisBP:0   MisRate:0.00%    MPKI:0.00
PC:4087c     Total:23      MisBP:0   MisRate:0.00%    MPKI:0.00
PC:18732     Total:5342      MisBP:0   MisRate:0.00%    MPKI:0.00
PC:1fe6c     Total:54949      MisBP:0   MisRate:0.00%    MPKI:0.00
PC:1d6b2     Total:14333      MisBP:0   MisRate:0.00%    MPKI:0.00
PC:17ff8     Total:3643      MisBP:0   MisRate:0.00%    MPKI:0.00
PC:40880     Total:20      MisBP:0   MisRate:0.00%    MPKI:0.00
PC:18736     Total:5342      MisBP:0   MisRate:0.00%    MPKI:0.00
PC:1d778     Total:9379      MisBP:0   MisRate:0.00%    MPKI:0.00
PC:1fe70     Total:55151      MisBP:0   MisRate:0.00%    MPKI:0.00
PC:1d6b6     Total:14333      MisBP:0   MisRate:0.00%    MPKI:0.00
PC:1873a     Total:5342      MisBP:0   MisRate:0.00%    MPKI:0.00
PC:15e14     Total:6372      MisBP:0   MisRate:0.00%    MPKI:0.00
PC:18678     Total:592      MisBP:0   MisRate:0.00%    MPKI:0.00
PC:1873e     Total:49808      MisBP:0   MisRate:0.00%    MPKI:0.00
PC:1d780     Total:9048      MisBP:0   MisRate:0.00%    MPKI:0.00
PC:1867c     Total:592      MisBP:0   MisRate:0.00%    MPKI:0.00
PC:18742     Total:99658      MisBP:0   MisRate:0.00%    MPKI:0.00
PC:1d784     Total:9048      MisBP:0   MisRate:0.00%    MPKI:0.00
PC:1fe7c     Total:55151      MisBP:0   MisRate:0.00%    MPKI:0.00
PC:1d6c2     Total:7875      MisBP:0   MisRate:0.00%    MPKI:0.00
PC:18680     Total:589      MisBP:0   MisRate:0.00%    MPKI:0.00
PC:18746     Total:49829      MisBP:0   MisRate:0.00%    MPKI:0.00
PC:2a13a     Total:2      MisBP:0   MisRate:0.00%    MPKI:0.00
PC:18050     Total:47588      MisBP:0   MisRate:0.00%    MPKI:0.00
PC:408d8     Total:13      MisBP:0   MisRate:0.00%    MPKI:0.00
PC:2a122     Total:3      MisBP:0   MisRate:0.00%    MPKI:0.00
PC:1ff00     Total:262602      MisBP:0   MisRate:0.00%    MPKI:0.00
PC:1d74e     Total:14203      MisBP:0   MisRate:0.00%    MPKI:0.00
PC:18094     Total:36042      MisBP:0   MisRate:0.00%    MPKI:0.00
PC:4091c     Total:1      MisBP:0   MisRate:0.00%    MPKI:0.00
PC:2a130     Total:2      MisBP:0   MisRate:0.00%    MPKI:0.00
PC:15e8c     Total:4984      MisBP:0   MisRate:0.00%    MPKI:0.00
PC:15e92     Total:4984      MisBP:0   MisRate:0.00%    MPKI:0.00
PC:1d75a     Total:13942      MisBP:0   MisRate:0.00%    MPKI:0.00
PC:1d70a     Total:14578      MisBP:0   MisRate:0.00%    MPKI:0.00
PC:1ff18     Total:233148      MisBP:0   MisRate:0.00%    MPKI:0.00
PC:200be     Total:43855      MisBP:0   MisRate:0.00%    MPKI:0.00
PC:15e9c     Total:4958      MisBP:0   MisRate:0.00%    MPKI:0.00
PC:1d764     Total:13933      MisBP:0   MisRate:0.00%    MPKI:0.00
PC:180aa     Total:14594      MisBP:0   MisRate:0.00%    MPKI:0.00
PC:40932     Total:1      MisBP:0   MisRate:0.00%    MPKI:0.00
PC:200b2     Total:44356      MisBP:0   MisRate:0.00%    MPKI:0.00
PC:16032     Total:240      MisBP:0   MisRate:0.00%    MPKI:0.00
PC:200b6     Total:44197      MisBP:0   MisRate:0.00%    MPKI:0.00
PC:1ff2a     Total:212746      MisBP:0   MisRate:0.00%    MPKI:0.00
PC:1d716     Total:14470      MisBP:0   MisRate:0.00%    MPKI:0.00
PC:1d6dc     Total:84237      MisBP:0   MisRate:0.00%    MPKI:0.00
PC:1869a     Total:589      MisBP:0   MisRate:0.00%    MPKI:0.00
PC:1d6e2     Total:11144      MisBP:0   MisRate:0.00%    MPKI:0.00
PC:408b0     Total:18      MisBP:0   MisRate:0.00%    MPKI:0.00
PC:1d6e6     Total:113240      MisBP:0   MisRate:0.00%    MPKI:0.00
PC:408b4     Total:20      MisBP:0   MisRate:0.00%    MPKI:0.00
PC:1fea8     Total:232379      MisBP:0   MisRate:0.00%    MPKI:0.00
PC:2a0d2     Total:3      MisBP:0   MisRate:0.00%    MPKI:0.00
PC:1d712     Total:14575      MisBP:0   MisRate:0.00%    MPKI:0.00
PC:18058     Total:47588      MisBP:0   MisRate:0.00%    MPKI:0.00
PC:408e0     Total:13      MisBP:0   MisRate:0.00%    MPKI:0.00
PC:17ff4     Total:3680      MisBP:0   MisRate:0.00%    MPKI:0.00
PC:408e4     Total:13      MisBP:0   MisRate:0.00%    MPKI:0.00
PC:1fed4     Total:548931      MisBP:0   MisRate:0.00%    MPKI:0.00
PC:15e50     Total:5692      MisBP:0   MisRate:0.00%    MPKI:0.00
PC:1d73e     Total:14136      MisBP:0   MisRate:0.00%    MPKI:0.00
PC:18084     Total:35911      MisBP:0   MisRate:0.00%    MPKI:0.00
PC:4090c     Total:10      MisBP:0   MisRate:0.00%    MPKI:0.00
PC:2a11e     Total:16      MisBP:0   MisRate:0.00%    MPKI:0.00
PC:1fefc     Total:286288      MisBP:0   MisRate:0.00%    MPKI:0.00
PC:1d704     Total:14580      MisBP:0   MisRate:0.00%    MPKI:0.00
PC:15e3e     Total:5711      MisBP:0   MisRate:0.00%    MPKI:0.00
PC:1cb4c     Total:10449      MisBP:0   MisRate:0.00%    MPKI:0.00
PC:201ae     Total:45832      MisBP:0   MisRate:0.00%    MPKI:0.00
PC:1ca74     Total:104711      MisBP:0   MisRate:0.00%    MPKI:0.00
PC:43380     Total:5      MisBP:0   MisRate:0.00%    MPKI:0.00
PC:17b00     Total:29811      MisBP:0   MisRate:0.00%    MPKI:0.00
PC:1cb42     Total:10451      MisBP:0   MisRate:0.00%    MPKI:0.00
PC:1ca7c     Total:104704      MisBP:0   MisRate:0.00%    MPKI:0.00
PC:17a3a     Total:8      MisBP:0   MisRate:0.00%    MPKI:0.00
PC:43388     Total:5      MisBP:0   MisRate:0.00%    MPKI:0.00
PC:1ca82     Total:48490      MisBP:0   MisRate:0.00%    MPKI:0.00
PC:17a40     Total:14      MisBP:0   MisRate:0.00%    MPKI:0.00
PC:17b0a     Total:19471      MisBP:0   MisRate:0.00%    MPKI:0.00
PC:17a2e     Total:3      MisBP:0   MisRate:0.00%    MPKI:0.00
PC:1ca86     Total:48488      MisBP:0   MisRate:0.00%    MPKI:0.00
PC:18a8a     Total:216147      MisBP:0   MisRate:0.00%    MPKI:0.00
PC:17b12     Total:2388      MisBP:0   MisRate:0.00%    MPKI:0.00
PC:1cb54     Total:4976      MisBP:0   MisRate:0.00%    MPKI:0.00
PC:17b1c     Total:2388      MisBP:0   MisRate:0.00%    MPKI:0.00
PC:1cb5e     Total:5071      MisBP:0   MisRate:0.00%    MPKI:0.00
PC:17b26     Total:2489      MisBP:0   MisRate:0.00%    MPKI:0.00
PC:1cb68     Total:1      MisBP:0   MisRate:0.00%    MPKI:0.00
PC:12ae4     Total:45      MisBP:0   MisRate:0.00%    MPKI:0.00
PC:201e0     Total:35542      MisBP:0   MisRate:0.00%    MPKI:0.00
PC:1d9be     Total:3495093      MisBP:0   MisRate:0.00%    MPKI:0.00
PC:179ee     Total:13321      MisBP:0   MisRate:0.00%    MPKI:0.00
PC:1ca32     Total:24647      MisBP:0   MisRate:0.00%    MPKI:0.00
PC:2be34     Total:20      MisBP:0   MisRate:0.00%    MPKI:0.00
PC:17ab8     Total:12680      MisBP:0   MisRate:0.00%    MPKI:0.00
PC:1cafa     Total:518969      MisBP:0   MisRate:0.00%    MPKI:0.00
PC:1ca34     Total:24475      MisBP:0   MisRate:0.00%    MPKI:0.00
PC:1d9b6     Total:3495249      MisBP:0   MisRate:0.00%    MPKI:0.00
PC:20174     Total:66230      MisBP:0   MisRate:0.00%    MPKI:0.00
PC:1ca38     Total:24475      MisBP:0   MisRate:0.00%    MPKI:0.00
PC:2017a     Total:66939      MisBP:0   MisRate:0.00%    MPKI:0.00
PC:1ca3e     Total:23876      MisBP:0   MisRate:0.00%    MPKI:0.00
PC:1615c     Total:80      MisBP:0   MisRate:0.00%    MPKI:0.00
PC:1ca48     Total:23876      MisBP:0   MisRate:0.00%    MPKI:0.00
PC:1ca54     Total:498119      MisBP:0   MisRate:0.00%    MPKI:0.00
PC:1d9d4     Total:132377      MisBP:0   MisRate:0.00%    MPKI:0.00
PC:1ca5e     Total:106144      MisBP:0   MisRate:0.00%    MPKI:0.00
PC:17b8c     Total:31499      MisBP:0   MisRate:0.00%    MPKI:0.00
PC:1cd6c     Total:2      MisBP:0   MisRate:0.00%    MPKI:0.00
PC:12b4a     Total:1791      MisBP:0   MisRate:0.00%    MPKI:0.00
PC:1cb26     Total:11690      MisBP:0   MisRate:0.00%    MPKI:0.00
PC:1cb3e     Total:11098      MisBP:0   MisRate:0.00%    MPKI:0.00
PC:1ca70     Total:106146      MisBP:0   MisRate:0.00%    MPKI:0.00
PC:180b2     Total:14540      MisBP:0   MisRate:0.00%    MPKI:0.00
PC:1fe54     Total:559816      MisBP:0   MisRate:0.00%    MPKI:0.00
PC:1fe58     Total:55245      MisBP:0   MisRate:0.00%    MPKI:0.00
PC:15c3a     Total:6969      MisBP:0   MisRate:0.00%    MPKI:0.00
PC:1fe5c     Total:55245      MisBP:0   MisRate:0.00%    MPKI:0.00
PC:18726     Total:5918      MisBP:0   MisRate:0.00%    MPKI:0.00
PC:1d768     Total:13933      MisBP:0   MisRate:0.00%    MPKI:0.00
PC:180ae     Total:14567      MisBP:0   MisRate:0.00%    MPKI:0.00
PC:40936     Total:1      MisBP:0   MisRate:0.00%    MPKI:0.00
PC:15c3e     Total:27538      MisBP:0   MisRate:0.00%    MPKI:0.00
PC:1fe60     Total:55244      MisBP:0   MisRate:0.00%    MPKI:0.00
PC:1872a     Total:5329      MisBP:0   MisRate:0.00%    MPKI:0.00
PC:15c32     Total:7042      MisBP:0   MisRate:0.00%    MPKI:0.00
PC:4093a     Total:1      MisBP:0   MisRate:0.00%    MPKI:0.00
PC:1fe64     Total:55244      MisBP:0   MisRate:0.00%    MPKI:0.00
PC:15de0     Total:688      MisBP:0   MisRate:0.00%    MPKI:0.00
PC:1d6aa     Total:14508      MisBP:0   MisRate:0.00%    MPKI:0.00
PC:17ff0     Total:3853      MisBP:0   MisRate:0.00%    MPKI:0.00
PC:40878     Total:23      MisBP:0   MisRate:0.00%    MPKI:0.00
PC:1d770     Total:9502      MisBP:0   MisRate:0.00%    MPKI:0.00
PC:1fe68     Total:55480      MisBP:0   MisRate:0.00%    MPKI:0.00
PC:15de4     Total:688      MisBP:0   MisRate:0.00%    MPKI:0.00
PC:1d6ae     Total:14337      MisBP:0   MisRate:0.00%    MPKI:0.00
PC:20152     Total:68714      MisBP:0   MisRate:0.00%    MPKI:0.00
PC:17b38     Total:2488      MisBP:0   MisRate:0.00%    MPKI:0.00
PC:18ab8     Total:224979      MisBP:0   MisRate:0.00%    MPKI:0.00
PC:1616e     Total:9924      MisBP:0   MisRate:0.00%    MPKI:0.00
PC:1da38     Total:114857      MisBP:0   MisRate:0.00%    MPKI:0.00
PC:201f6     Total:34228      MisBP:0   MisRate:0.00%    MPKI:0.00
PC:16172     Total:9923      MisBP:0   MisRate:0.00%    MPKI:0.00
PC:17b42     Total:2486      MisBP:0   MisRate:0.00%    MPKI:0.00
PC:1da3e     Total:571294      MisBP:0   MisRate:0.00%    MPKI:0.00
PC:16178     Total:6      MisBP:0   MisRate:0.00%    MPKI:0.00
PC:17f36     Total:12615      MisBP:0   MisRate:0.00%    MPKI:0.00
PC:15f30     Total:12      MisBP:0   MisRate:0.00%    MPKI:0.00
PC:200ba     Total:44197      MisBP:0   MisRate:0.00%    MPKI:0.00
PC:20168     Total:68626      MisBP:0   MisRate:0.00%    MPKI:0.00
PC:1d9ba     Total:3495198      MisBP:0   MisRate:0.00%    MPKI:0.00
PC:18716     Total:5918      MisBP:0   MisRate:0.00%    MPKI:0.00
PC:1809e     Total:14606      MisBP:0   MisRate:0.00%    MPKI:0.00
PC:40926     Total:1      MisBP:0   MisRate:0.00%    MPKI:0.00
PC:15c2e     Total:13452      MisBP:0   MisRate:0.00%    MPKI:0.00
PC:1fe50     Total:56300      MisBP:0   MisRate:0.00%    MPKI:0.00
PC:1871a     Total:5918      MisBP:0   MisRate:0.00%    MPKI:0.00
PC:180a2     Total:14604      MisBP:0   MisRate:0.00%    MPKI:0.00
PC:4092a     Total:1      MisBP:0   MisRate:0.00%    MPKI:0.00
PC:18148     Total:33493      MisBP:0   MisRate:0.00%    MPKI:0.00
PC:1d7f2     Total:8399      MisBP:0   MisRate:0.00%    MPKI:0.00
PC:187b0     Total:39648      MisBP:0   MisRate:0.00%    MPKI:0.00
PC:15f2c     Total:12      MisBP:0   MisRate:0.00%    MPKI:0.00
PC:15432     Total:6545      MisBP:0   MisRate:0.00%    MPKI:0.00
PC:15a44     Total:50567      MisBP:0   MisRate:0.00%    MPKI:0.00
PC:15a48     Total:50566      MisBP:0   MisRate:0.00%    MPKI:0.00
PC:409c8     Total:12      MisBP:0   MisRate:0.00%    MPKI:0.00
PC:18140     Total:33506      MisBP:0   MisRate:0.00%    MPKI:0.00
PC:15a4c     Total:50566      MisBP:0   MisRate:0.00%    MPKI:0.00
PC:1d186     Total:67137      MisBP:0   MisRate:0.00%    MPKI:0.00
PC:1d18a     Total:67118      MisBP:0   MisRate:0.00%    MPKI:0.00
PC:12b2c     Total:102      MisBP:0   MisRate:0.00%    MPKI:0.00
PC:15a52     Total:48168      MisBP:0   MisRate:0.00%    MPKI:0.00
PC:1d18c     Total:67117      MisBP:0   MisRate:0.00%    MPKI:0.00
PC:15a56     Total:48167      MisBP:0   MisRate:0.00%    MPKI:0.00
PC:1d190     Total:67098      MisBP:0   MisRate:0.00%    MPKI:0.00
PC:1d192     Total:67098      MisBP:0   MisRate:0.00%    MPKI:0.00
PC:409d8     Total:1      MisBP:0   MisRate:0.00%    MPKI:0.00
PC:18150     Total:33493      MisBP:0   MisRate:0.00%    MPKI:0.00
PC:15a5a     Total:48167      MisBP:0   MisRate:0.00%    MPKI:0.00
PC:1d194     Total:607257      MisBP:0   MisRate:0.00%    MPKI:0.00
PC:1d19e     Total:302069      MisBP:0   MisRate:0.00%    MPKI:0.00
PC:2206c     Total:1      MisBP:0   MisRate:0.00%    MPKI:0.00
PC:1ce86     Total:5816      MisBP:0   MisRate:0.00%    MPKI:0.00
PC:12e02     Total:162      MisBP:0   MisRate:0.00%    MPKI:0.00
PC:17e44     Total:2104      MisBP:0   MisRate:0.00%    MPKI:0.00
PC:17f0e     Total:215375      MisBP:0   MisRate:0.00%    MPKI:0.00
PC:1d0ee     Total:29749      MisBP:0   MisRate:0.00%    MPKI:0.00
PC:12ecc     Total:2682      MisBP:0   MisRate:0.00%    MPKI:0.00
PC:1ce8a     Total:5816      MisBP:0   MisRate:0.00%    MPKI:0.00
PC:12e06     Total:375      MisBP:0   MisRate:0.00%    MPKI:0.00
PC:406d0     Total:6      MisBP:0   MisRate:0.00%    MPKI:0.00
PC:17e48     Total:2104      MisBP:0   MisRate:0.00%    MPKI:0.00
PC:1ce8c     Total:5816      MisBP:0   MisRate:0.00%    MPKI:0.00
PC:15a68     Total:45533      MisBP:0   MisRate:0.00%    MPKI:0.00
PC:17e4a     Total:2104      MisBP:0   MisRate:0.00%    MPKI:0.00
PC:1ce90     Total:5816      MisBP:0   MisRate:0.00%    MPKI:0.00
PC:17f16     Total:215362      MisBP:0   MisRate:0.00%    MPKI:0.00
PC:1ce92     Total:5816      MisBP:0   MisRate:0.00%    MPKI:0.00
PC:406d8     Total:18      MisBP:0   MisRate:0.00%    MPKI:0.00
PC:17e50     Total:2094      MisBP:0   MisRate:0.00%    MPKI:0.00
PC:17f1e     Total:213864      MisBP:0   MisRate:0.00%    MPKI:0.00
PC:17b54     Total:2849      MisBP:0   MisRate:0.00%    MPKI:0.00
PC:17b6e     Total:74204      MisBP:0   MisRate:0.00%    MPKI:0.00
PC:1cd4e     Total:12142      MisBP:0   MisRate:0.00%    MPKI:0.00
PC:1cce2     Total:1      MisBP:0   MisRate:0.00%    MPKI:0.00
PC:1ccd2     Total:1      MisBP:0   MisRate:0.00%    MPKI:0.00
PC:1ccd6     Total:1      MisBP:0   MisRate:0.00%    MPKI:0.00
PC:12ab6     Total:123      MisBP:0   MisRate:0.00%    MPKI:0.00
PC:1ccd8     Total:1      MisBP:0   MisRate:0.00%    MPKI:0.00
PC:1ccda     Total:1      MisBP:0   MisRate:0.00%    MPKI:0.00
PC:12aba     Total:123      MisBP:0   MisRate:0.00%    MPKI:0.00
PC:1ccdc     Total:1      MisBP:0   MisRate:0.00%    MPKI:0.00
PC:12abc     Total:123      MisBP:0   MisRate:0.00%    MPKI:0.00
PC:1ccde     Total:1      MisBP:0   MisRate:0.00%    MPKI:0.00
PC:1cce0     Total:1      MisBP:0   MisRate:0.00%    MPKI:0.00
PC:12ac0     Total:49      MisBP:0   MisRate:0.00%    MPKI:0.00
PC:1ccd0     Total:5508      MisBP:0   MisRate:0.00%    MPKI:0.00
PC:1cce4     Total:1      MisBP:0   MisRate:0.00%    MPKI:0.00
PC:1cce8     Total:1      MisBP:0   MisRate:0.00%    MPKI:0.00
PC:12ac8     Total:49      MisBP:0   MisRate:0.00%    MPKI:0.00
PC:1ccea     Total:1      MisBP:0   MisRate:0.00%    MPKI:0.00
PC:1ccec     Total:1      MisBP:0   MisRate:0.00%    MPKI:0.00
PC:12acc     Total:49      MisBP:0   MisRate:0.00%    MPKI:0.00
PC:1ccee     Total:1      MisBP:0   MisRate:0.00%    MPKI:0.00
PC:1ccf0     Total:1      MisBP:0   MisRate:0.00%    MPKI:0.00
PC:12ad0     Total:49      MisBP:0   MisRate:0.00%    MPKI:0.00
PC:1ccf2     Total:1      MisBP:0   MisRate:0.00%    MPKI:0.00
PC:1ccb4     Total:39735      MisBP:0   MisRate:0.00%    MPKI:0.00
PC:1d1a2     Total:302030      MisBP:0   MisRate:0.00%    MPKI:0.00
PC:409e8     Total:1      MisBP:0   MisRate:0.00%    MPKI:0.00
PC:18160     Total:33448      MisBP:0   MisRate:0.00%    MPKI:0.00
PC:1d1ac     Total:74924      MisBP:0   MisRate:0.00%    MPKI:0.00
PC:18238     Total:167860      MisBP:0   MisRate:0.00%    MPKI:0.00
PC:1d1b4     Total:67985      MisBP:0   MisRate:0.00%    MPKI:0.00
PC:1d1c8     Total:61148      MisBP:0   MisRate:0.00%    MPKI:0.00
PC:1826a     Total:164759      MisBP:0   MisRate:0.00%    MPKI:0.00
PC:1d2ac     Total:156      MisBP:0   MisRate:0.00%    MPKI:0.00
PC:1d1e6     Total:57262      MisBP:0   MisRate:0.00%    MPKI:0.00
PC:1ccb2     Total:39736      MisBP:0   MisRate:0.00%    MPKI:0.00
PC:12ec8     Total:2682      MisBP:0   MisRate:0.00%    MPKI:0.00
PC:1ccba     Total:8783      MisBP:0   MisRate:0.00%    MPKI:0.00
PC:1ccbc     Total:8784      MisBP:0   MisRate:0.00%    MPKI:0.00
PC:1ccbe     Total:8784      MisBP:0   MisRate:0.00%    MPKI:0.00
PC:1ccc4     Total:5508      MisBP:0   MisRate:0.00%    MPKI:0.00
PC:12aa6     Total:402      MisBP:0   MisRate:0.00%    MPKI:0.00
PC:1ccc8     Total:5508      MisBP:0   MisRate:0.00%    MPKI:0.00
PC:12aaa     Total:315      MisBP:0   MisRate:0.00%    MPKI:0.00
PC:1cccc     Total:5508      MisBP:0   MisRate:0.00%    MPKI:0.00
PC:1ccce     Total:5508      MisBP:0   MisRate:0.00%    MPKI:0.00
PC:12aae     Total:123      MisBP:0   MisRate:0.00%    MPKI:0.00
PC:18770     Total:43167      MisBP:0   MisRate:0.00%    MPKI:0.00
PC:1d7a8     Total:2229      MisBP:0   MisRate:0.00%    MPKI:0.00
PC:18766     Total:65      MisBP:0   MisRate:0.00%    MPKI:0.00
PC:1d7aa     Total:2142      MisBP:0   MisRate:0.00%    MPKI:0.00
PC:18768     Total:65      MisBP:0   MisRate:0.00%    MPKI:0.00
PC:15ee4     Total:1202      MisBP:0   MisRate:0.00%    MPKI:0.00
PC:1d7ac     Total:8057      MisBP:0   MisRate:0.00%    MPKI:0.00
PC:1876a     Total:65      MisBP:0   MisRate:0.00%    MPKI:0.00
PC:1ff6a     Total:379210      MisBP:0   MisRate:0.00%    MPKI:0.00
PC:1d7ae     Total:13540      MisBP:0   MisRate:0.00%    MPKI:0.00
PC:1876c     Total:65      MisBP:0   MisRate:0.00%    MPKI:0.00
PC:1d7b2     Total:13540      MisBP:0   MisRate:0.00%    MPKI:0.00
PC:1875a     Total:283      MisBP:0   MisRate:0.00%    MPKI:0.00
PC:1d7b6     Total:13538      MisBP:0   MisRate:0.00%    MPKI:0.00
PC:18774     Total:344290      MisBP:0   MisRate:0.00%    MPKI:0.00
PC:1d7be     Total:4901      MisBP:0   MisRate:0.00%    MPKI:0.00
PC:1877c     Total:42137      MisBP:0   MisRate:0.00%    MPKI:0.00
PC:1ff7c     Total:379193      MisBP:0   MisRate:0.00%    MPKI:0.00
PC:18786     Total:40639      MisBP:0   MisRate:0.00%    MPKI:0.00
PC:1884c     Total:63443      MisBP:0   MisRate:0.00%    MPKI:0.00
PC:15f02     Total:1697      MisBP:0   MisRate:0.00%    MPKI:0.00
PC:1d7cc     Total:4361      MisBP:0   MisRate:0.00%    MPKI:0.00
PC:1878a     Total:40639      MisBP:0   MisRate:0.00%    MPKI:0.00
PC:2a162     Total:1      MisBP:0   MisRate:0.00%    MPKI:0.00
PC:2a150     Total:11      MisBP:0   MisRate:0.00%    MPKI:0.00
PC:1d776     Total:9379      MisBP:0   MisRate:0.00%    MPKI:0.00
PC:1603e     Total:5882      MisBP:0   MisRate:0.00%    MPKI:0.00
PC:15ea0     Total:4958      MisBP:0   MisRate:0.00%    MPKI:0.00
PC:200c2     Total:43855      MisBP:0   MisRate:0.00%    MPKI:0.00
PC:15eb2     Total:351      MisBP:0   MisRate:0.00%    MPKI:0.00
PC:2a15c     Total:8      MisBP:0   MisRate:0.00%    MPKI:0.00
PC:1ff3a     Total:480424      MisBP:0   MisRate:0.00%    MPKI:0.00
PC:15eb6     Total:407      MisBP:0   MisRate:0.00%    MPKI:0.00
PC:1d782     Total:9048      MisBP:0   MisRate:0.00%    MPKI:0.00
PC:16048     Total:4923      MisBP:0   MisRate:0.00%    MPKI:0.00
PC:15f06     Total:90      MisBP:0   MisRate:0.00%    MPKI:0.00
PC:1ff40     Total:428371      MisBP:0   MisRate:0.00%    MPKI:0.00
PC:15ebc     Total:407      MisBP:0   MisRate:0.00%    MPKI:0.00
PC:15eac     Total:4958      MisBP:0   MisRate:0.00%    MPKI:0.00
PC:200ce     Total:43855      MisBP:0   MisRate:0.00%    MPKI:0.00
PC:1604e     Total:4923      MisBP:0   MisRate:0.00%    MPKI:0.00
PC:200d2     Total:43855      MisBP:0   MisRate:0.00%    MPKI:0.00
PC:200e4     Total:36695      MisBP:0   MisRate:0.00%    MPKI:0.00
PC:15ec2     Total:19      MisBP:0   MisRate:0.00%    MPKI:0.00
PC:200d6     Total:43855      MisBP:0   MisRate:0.00%    MPKI:0.00
PC:1d79c     Total:8203      MisBP:0   MisRate:0.00%    MPKI:0.00
PC:202d4     Total:20166      MisBP:0   MisRate:0.00%    MPKI:0.00
PC:187a8     Total:39648      MisBP:0   MisRate:0.00%    MPKI:0.00
PC:18130     Total:34880      MisBP:0   MisRate:0.00%    MPKI:0.00
PC:409b8     Total:16      MisBP:0   MisRate:0.00%    MPKI:0.00
PC:20146     Total:68720      MisBP:0   MisRate:0.00%    MPKI:0.00
PC:15f24     Total:83      MisBP:0   MisRate:0.00%    MPKI:0.00
PC:1d7c0     Total:4775      MisBP:0   MisRate:0.00%    MPKI:0.00
PC:18844     Total:65780      MisBP:0   MisRate:0.00%    MPKI:0.00
PC:1d7c4     Total:4775      MisBP:0   MisRate:0.00%    MPKI:0.00
PC:18782     Total:40639      MisBP:0   MisRate:0.00%    MPKI:0.00
PC:1ff82     Total:367788      MisBP:0   MisRate:0.00%    MPKI:0.00
PC:1d7c6     Total:4775      MisBP:0   MisRate:0.00%    MPKI:0.00
PC:1d7ea     Total:8412      MisBP:0   MisRate:0.00%    MPKI:0.00
PC:16250     Total:454      MisBP:0   MisRate:0.00%    MPKI:0.00
PC:17f56     Total:12031      MisBP:0   MisRate:0.00%    MPKI:0.00
PC:17f26     Total:214088      MisBP:0   MisRate:0.00%    MPKI:0.00
PC:1cea2     Total:51585      MisBP:0   MisRate:0.00%    MPKI:0.00
PC:17f06     Total:215377      MisBP:0   MisRate:0.00%    MPKI:0.00
PC:1ce82     Total:49009      MisBP:0   MisRate:0.00%    MPKI:0.00
PC:12dfe     Total:258      MisBP:0   MisRate:0.00%    MPKI:0.00
PC:1ce84     Total:49009      MisBP:0   MisRate:0.00%    MPKI:0.00
PC:17f0a     Total:215377      MisBP:0   MisRate:0.00%    MPKI:0.00
PC:1d0ea     Total:25450      MisBP:0   MisRate:0.00%    MPKI:0.00
PC:409a8     Total:16      MisBP:0   MisRate:0.00%    MPKI:0.00
PC:1d7ce     Total:4361      MisBP:0   MisRate:0.00%    MPKI:0.00
PC:1ff8c     Total:402895      MisBP:0   MisRate:0.00%    MPKI:0.00
PC:1d7d2     Total:4228      MisBP:0   MisRate:0.00%    MPKI:0.00
PC:1d7d4     Total:4228      MisBP:0   MisRate:0.00%    MPKI:0.00
PC:18792     Total:40639      MisBP:0   MisRate:0.00%    MPKI:0.00
PC:409a2     Total:16      MisBP:0   MisRate:0.00%    MPKI:0.00
PC:1d7d6     Total:1      MisBP:0   MisRate:0.00%    MPKI:0.00
PC:1ff94     Total:5349      MisBP:0   MisRate:0.00%    MPKI:0.00
PC:1d7da     Total:5272      MisBP:0   MisRate:0.00%    MPKI:0.00
PC:18798     Total:40638      MisBP:0   MisRate:0.00%    MPKI:0.00
PC:18120     Total:34886      MisBP:0   MisRate:0.00%    MPKI:0.00
PC:412a6     Total:13      MisBP:0   MisRate:0.00%    MPKI:0.00
PC:1885e     Total:63443      MisBP:0   MisRate:0.00%    MPKI:0.00
PC:1d7dc     Total:5271      MisBP:0   MisRate:0.00%    MPKI:0.00
PC:20138     Total:720831      MisBP:0   MisRate:0.00%    MPKI:0.00
PC:15f16     Total:90      MisBP:0   MisRate:0.00%    MPKI:0.00
PC:409ae     Total:16      MisBP:0   MisRate:0.00%    MPKI:0.00
PC:1d7e4     Total:8417      MisBP:0   MisRate:0.00%    MPKI:0.00
PC:409b2     Total:16      MisBP:0   MisRate:0.00%    MPKI:0.00
PC:1ffa2     Total:5112      MisBP:0   MisRate:0.00%    MPKI:0.00
PC:20144     Total:68720      MisBP:0   MisRate:0.00%    MPKI:0.00
PC:15f22     Total:83      MisBP:0   MisRate:0.00%    MPKI:0.00
PC:1d6f6     Total:90982      MisBP:0   MisRate:0.00%    MPKI:0.00
PC:186aa     Total:588      MisBP:0   MisRate:0.00%    MPKI:0.00
PC:18032     Total:47798      MisBP:0   MisRate:0.00%    MPKI:0.00
PC:408ba     Total:19      MisBP:0   MisRate:0.00%    MPKI:0.00
PC:1d6ee     Total:90983      MisBP:0   MisRate:0.00%    MPKI:0.00
PC:186ac     Total:3      MisBP:0   MisRate:0.00%    MPKI:0.00
PC:408bc     Total:19      MisBP:0   MisRate:0.00%    MPKI:0.00
PC:1d6f0     Total:90983      MisBP:0   MisRate:0.00%    MPKI:0.00
PC:1d6f2     Total:90983      MisBP:0   MisRate:0.00%    MPKI:0.00
PC:186b0     Total:3      MisBP:0   MisRate:0.00%    MPKI:0.00
PC:408c0     Total:16      MisBP:0   MisRate:0.00%    MPKI:0.00
PC:1d6f4     Total:90983      MisBP:0   MisRate:0.00%    MPKI:0.00
PC:1d6ec     Total:90983      MisBP:0   MisRate:0.00%    MPKI:0.00
PC:186b4     Total:3      MisBP:0   MisRate:0.00%    MPKI:0.00
PC:1803c     Total:47700      MisBP:0   MisRate:0.00%    MPKI:0.00
PC:408c4     Total:16      MisBP:0   MisRate:0.00%    MPKI:0.00
PC:1d6f8     Total:90982      MisBP:0   MisRate:0.00%    MPKI:0.00
PC:14fa2     Total:132166      MisBP:0   MisRate:0.00%    MPKI:0.00
PC:14fa6     Total:132166      MisBP:0   MisRate:0.00%    MPKI:0.00
PC:14faa     Total:132184      MisBP:0   MisRate:0.00%    MPKI:0.00
PC:14fac     Total:138694      MisBP:0   MisRate:0.00%    MPKI:0.00
PC:14fae     Total:138694      MisBP:0   MisRate:0.00%    MPKI:0.00
PC:14fb2     Total:184874      MisBP:0   MisRate:0.00%    MPKI:0.00
PC:168e0     Total:4158      MisBP:0   MisRate:0.00%    MPKI:0.00
PC:168be     Total:32681      MisBP:0   MisRate:0.00%    MPKI:0.00
PC:168c2     Total:32681      MisBP:0   MisRate:0.00%    MPKI:0.00
PC:168c6     Total:32681      MisBP:0   MisRate:0.00%    MPKI:0.00
PC:168ca     Total:32681      MisBP:0   MisRate:0.00%    MPKI:0.00
PC:168ce     Total:32680      MisBP:0   MisRate:0.00%    MPKI:0.00
PC:168d0     Total:32680      MisBP:0   MisRate:0.00%    MPKI:0.00
PC:168d4     Total:32680      MisBP:0   MisRate:0.00%    MPKI:0.00
PC:168d6     Total:32678      MisBP:0   MisRate:0.00%    MPKI:0.00
PC:168d8     Total:4158      MisBP:0   MisRate:0.00%    MPKI:0.00
PC:168da     Total:4158      MisBP:0   MisRate:0.00%    MPKI:0.00
PC:168de     Total:4158      MisBP:0   MisRate:0.00%    MPKI:0.00
PC:14fb6     Total:184874      MisBP:0   MisRate:0.00%    MPKI:0.00
PC:168e4     Total:4158      MisBP:0   MisRate:0.00%    MPKI:0.00
PC:168e8     Total:4222      MisBP:0   MisRate:0.00%    MPKI:0.00
PC:168ea     Total:4222      MisBP:0   MisRate:0.00%    MPKI:0.00
PC:168ee     Total:4222      MisBP:0   MisRate:0.00%    MPKI:0.00
PC:168f2     Total:4013      MisBP:0   MisRate:0.00%    MPKI:0.00
PC:168f4     Total:4013      MisBP:0   MisRate:0.00%    MPKI:0.00
PC:168f8     Total:4013      MisBP:0   MisRate:0.00%    MPKI:0.00
PC:168fc     Total:4013      MisBP:0   MisRate:0.00%    MPKI:0.00
PC:1d6e8     Total:113239      MisBP:0   MisRate:0.00%    MPKI:0.00
PC:186a6     Total:588      MisBP:0   MisRate:0.00%    MPKI:0.00
PC:18142     Total:33500      MisBP:0   MisRate:0.00%    MPKI:0.00
PC:122e8     Total:277370      MisBP:0   MisRate:0.00%    MPKI:0.00
PC:122ee     Total:267406      MisBP:0   MisRate:0.00%    MPKI:0.00
PC:122f2     Total:248584      MisBP:0   MisRate:0.00%    MPKI:0.00
PC:122f6     Total:482943      MisBP:0   MisRate:0.00%    MPKI:0.00
PC:122fc     Total:403089      MisBP:0   MisRate:0.00%    MPKI:0.00
PC:12308     Total:528959      MisBP:0   MisRate:0.00%    MPKI:0.00
PC:1d6fa     Total:90981      MisBP:0   MisRate:0.00%    MPKI:0.00
PC:186b8     Total:3      MisBP:0   MisRate:0.00%    MPKI:0.00
PC:1d6fc     Total:89780      MisBP:0   MisRate:0.00%    MPKI:0.00
PC:408ca     Total:15      MisBP:0   MisRate:0.00%    MPKI:0.00
PC:186bc     Total:3      MisBP:0   MisRate:0.00%    MPKI:0.00
PC:122e0     Total:377094      MisBP:0   MisRate:0.00%    MPKI:0.00
PC:409ce     Total:1      MisBP:0   MisRate:0.00%    MPKI:0.00
PC:18146     Total:33493      MisBP:0   MisRate:0.00%    MPKI:0.00
PC:409d4     Total:1      MisBP:0   MisRate:0.00%    MPKI:0.00
PC:1814c     Total:33493      MisBP:0   MisRate:0.00%    MPKI:0.00
PC:409dc     Total:1      MisBP:0   MisRate:0.00%    MPKI:0.00
PC:18154     Total:33493      MisBP:0   MisRate:0.00%    MPKI:0.00
PC:1815e     Total:33452      MisBP:0   MisRate:0.00%    MPKI:0.00
PC:1827e     Total:31516      MisBP:0   MisRate:0.00%    MPKI:0.00
PC:1d2c0     Total:73      MisBP:0   MisRate:0.00%    MPKI:0.00
PC:18282     Total:31497      MisBP:0   MisRate:0.00%    MPKI:0.00
PC:21356     Total:88      MisBP:0   MisRate:0.00%    MPKI:0.00
PC:14fb8     Total:924369      MisBP:0   MisRate:0.00%    MPKI:0.00
PC:1227e     Total:746269      MisBP:0   MisRate:0.00%    MPKI:0.00
PC:2b56c     Total:2      MisBP:0   MisRate:0.00%    MPKI:0.00
PC:17128     Total:1232609      MisBP:0   MisRate:0.00%    MPKI:0.00
PC:2134a     Total:88      MisBP:0   MisRate:0.00%    MPKI:0.00
PC:2b570     Total:2      MisBP:0   MisRate:0.00%    MPKI:0.00
PC:2134e     Total:88      MisBP:0   MisRate:0.00%    MPKI:0.00
PC:1228c     Total:505644      MisBP:0   MisRate:0.00%    MPKI:0.00
PC:17130     Total:1460356      MisBP:0   MisRate:0.00%    MPKI:0.00
PC:21352     Total:88      MisBP:0   MisRate:0.00%    MPKI:0.00
PC:12290     Total:505644      MisBP:0   MisRate:0.00%    MPKI:0.00
PC:1dcb8     Total:556      MisBP:0   MisRate:0.00%    MPKI:0.00
PC:12298     Total:359214      MisBP:0   MisRate:0.00%    MPKI:0.00
PC:2b580     Total:1      MisBP:0   MisRate:0.00%    MPKI:0.00
PC:1713c     Total:221737      MisBP:0   MisRate:0.00%    MPKI:0.00
PC:2135e     Total:88      MisBP:0   MisRate:0.00%    MPKI:0.00
PC:122a8     Total:1314678      MisBP:0   MisRate:0.00%    MPKI:0.00
PC:2136e     Total:88      MisBP:0   MisRate:0.00%    MPKI:0.00
PC:122ae     Total:1314671      MisBP:0   MisRate:0.00%    MPKI:0.00
PC:122b8     Total:204388      MisBP:0   MisRate:0.00%    MPKI:0.00
PC:122d6     Total:754188      MisBP:0   MisRate:0.00%    MPKI:0.00
PC:122da     Total:377094      MisBP:0   MisRate:0.00%    MPKI:0.00
PC:12b72     Total:63      MisBP:0   MisRate:0.00%    MPKI:0.00
PC:406b2     Total:11      MisBP:0   MisRate:0.00%    MPKI:0.00
PC:1d4e6     Total:3226      MisBP:0   MisRate:0.00%    MPKI:0.00
PC:1d12e     Total:12619      MisBP:0   MisRate:0.00%    MPKI:0.00
PC:16e4e     Total:3045      MisBP:0   MisRate:0.00%    MPKI:0.00
PC:16e64     Total:2957      MisBP:0   MisRate:0.00%    MPKI:0.00
PC:17bae     Total:10602      MisBP:0   MisRate:0.00%    MPKI:0.00
PC:12b6c     Total:63      MisBP:0   MisRate:0.00%    MPKI:0.00
PC:17bb0     Total:10603      MisBP:0   MisRate:0.00%    MPKI:0.00
PC:17bb2     Total:10603      MisBP:0   MisRate:0.00%    MPKI:0.00
PC:12b70     Total:63      MisBP:0   MisRate:0.00%    MPKI:0.00
PC:17bb4     Total:10603      MisBP:0   MisRate:0.00%    MPKI:0.00
PC:2204c     Total:1      MisBP:0   MisRate:0.00%    MPKI:0.00
PC:17bb6     Total:10759      MisBP:0   MisRate:0.00%    MPKI:0.00
PC:17bb8     Total:10759      MisBP:0   MisRate:0.00%    MPKI:0.00
PC:12b76     Total:63      MisBP:0   MisRate:0.00%    MPKI:0.00
PC:17bbc     Total:10752      MisBP:0   MisRate:0.00%    MPKI:0.00
PC:12b7a     Total:56      MisBP:0   MisRate:0.00%    MPKI:0.00
PC:17bbe     Total:10742      MisBP:0   MisRate:0.00%    MPKI:0.00
PC:17bc0     Total:10680      MisBP:0   MisRate:0.00%    MPKI:0.00
PC:12b7e     Total:54      MisBP:0   MisRate:0.00%    MPKI:0.00
PC:17bc2     Total:10680      MisBP:0   MisRate:0.00%    MPKI:0.00
PC:17bc6     Total:10680      MisBP:0   MisRate:0.00%    MPKI:0.00
PC:1d4da     Total:11695      MisBP:0   MisRate:0.00%    MPKI:0.00
PC:40696     Total:10      MisBP:0   MisRate:0.00%    MPKI:0.00
PC:1d4ca     Total:12035      MisBP:0   MisRate:0.00%    MPKI:0.00
PC:1d4ce     Total:12032      MisBP:0   MisRate:0.00%    MPKI:0.00
PC:4069c     Total:10      MisBP:0   MisRate:0.00%    MPKI:0.00
PC:1d4d0     Total:12032      MisBP:0   MisRate:0.00%    MPKI:0.00
PC:22038     Total:1      MisBP:0   MisRate:0.00%    MPKI:0.00
PC:1d4d4     Total:12032      MisBP:0   MisRate:0.00%    MPKI:0.00
PC:1d4d6     Total:11695      MisBP:0   MisRate:0.00%    MPKI:0.00
PC:2203e     Total:1      MisBP:0   MisRate:0.00%    MPKI:0.00
PC:406a4     Total:10      MisBP:0   MisRate:0.00%    MPKI:0.00
PC:1d4d8     Total:11695      MisBP:0   MisRate:0.00%    MPKI:0.00
PC:12b84     Total:54      MisBP:0   MisRate:0.00%    MPKI:0.00
PC:22042     Total:1      MisBP:0   MisRate:0.00%    MPKI:0.00
PC:406a8     Total:10      MisBP:0   MisRate:0.00%    MPKI:0.00
PC:1d4dc     Total:496      MisBP:0   MisRate:0.00%    MPKI:0.00
PC:1d4de     Total:496      MisBP:0   MisRate:0.00%    MPKI:0.00
PC:22046     Total:1      MisBP:0   MisRate:0.00%    MPKI:0.00
PC:406ac     Total:11      MisBP:0   MisRate:0.00%    MPKI:0.00
PC:1d4e0     Total:496      MisBP:0   MisRate:0.00%    MPKI:0.00
PC:22048     Total:1      MisBP:0   MisRate:0.00%    MPKI:0.00
PC:406ae     Total:11      MisBP:0   MisRate:0.00%    MPKI:0.00
PC:1d4e4     Total:496      MisBP:0   MisRate:0.00%    MPKI:0.00
PC:3241c     Total:1      MisBP:0   MisRate:0.00%    MPKI:0.00
PC:32402     Total:1      MisBP:0   MisRate:0.00%    MPKI:0.00
PC:1dfbe     Total:311      MisBP:0   MisRate:0.00%    MPKI:0.00
PC:1e034     Total:264      MisBP:0   MisRate:0.00%    MPKI:0.00
PC:1e038     Total:258      MisBP:0   MisRate:0.00%    MPKI:0.00
PC:18ff6     Total:4233      MisBP:0   MisRate:0.00%    MPKI:0.00
PC:1e03c     Total:109      MisBP:0   MisRate:0.00%    MPKI:0.00
PC:18ffa     Total:4233      MisBP:0   MisRate:0.00%    MPKI:0.00
PC:18e5c     Total:85725      MisBP:0   MisRate:0.00%    MPKI:0.00
PC:2307e     Total:299      MisBP:0   MisRate:0.00%    MPKI:0.00
PC:1dfd4     Total:5232      MisBP:0   MisRate:0.00%    MPKI:0.00
PC:18f92     Total:22964      MisBP:0   MisRate:0.00%    MPKI:0.00
PC:17bf0     Total:11277      MisBP:0   MisRate:0.00%    MPKI:0.00
PC:1dfd8     Total:5232      MisBP:0   MisRate:0.00%    MPKI:0.00
PC:32428     Total:1      MisBP:0   MisRate:0.00%    MPKI:0.00
PC:1dfe4     Total:994      MisBP:0   MisRate:0.00%    MPKI:0.00
PC:18fa2     Total:4223      MisBP:0   MisRate:0.00%    MPKI:0.00
PC:1dfee     Total:160      MisBP:0   MisRate:0.00%    MPKI:0.00
PC:1dff4     Total:4800      MisBP:0   MisRate:0.00%    MPKI:0.00
PC:1dff8     Total:4800      MisBP:0   MisRate:0.00%    MPKI:0.00
PC:1dffe     Total:4800      MisBP:0   MisRate:0.00%    MPKI:0.00
PC:1dd7e     Total:920      MisBP:0   MisRate:0.00%    MPKI:0.00
PC:1dc9e     Total:559      MisBP:0   MisRate:0.00%    MPKI:0.00
PC:12b94     Total:53      MisBP:0   MisRate:0.00%    MPKI:0.00
PC:17bc8     Total:10680      MisBP:0   MisRate:0.00%    MPKI:0.00
PC:12b86     Total:54      MisBP:0   MisRate:0.00%    MPKI:0.00
PC:17bca     Total:10680      MisBP:0   MisRate:0.00%    MPKI:0.00
PC:17bce     Total:10851      MisBP:0   MisRate:0.00%    MPKI:0.00
PC:17bd0     Total:10851      MisBP:0   MisRate:0.00%    MPKI:0.00
PC:12b8e     Total:53      MisBP:0   MisRate:0.00%    MPKI:0.00
PC:17bd2     Total:11030      MisBP:0   MisRate:0.00%    MPKI:0.00
PC:12b90     Total:53      MisBP:0   MisRate:0.00%    MPKI:0.00
PC:17bd4     Total:11171      MisBP:0   MisRate:0.00%    MPKI:0.00
PC:12b92     Total:53      MisBP:0   MisRate:0.00%    MPKI:0.00
PC:17bd6     Total:11171      MisBP:0   MisRate:0.00%    MPKI:0.00
PC:1d2c4     Total:73      MisBP:0   MisRate:0.00%    MPKI:0.00
PC:17bda     Total:11171      MisBP:0   MisRate:0.00%    MPKI:0.00
PC:12b98     Total:1700      MisBP:0   MisRate:0.00%    MPKI:0.00
PC:17bdc     Total:11333      MisBP:0   MisRate:0.00%    MPKI:0.00
PC:12b9a     Total:1700      MisBP:0   MisRate:0.00%    MPKI:0.00
PC:17bde     Total:11333      MisBP:0   MisRate:0.00%    MPKI:0.00
PC:17be2     Total:11333      MisBP:0   MisRate:0.00%    MPKI:0.00
PC:17be6     Total:11333      MisBP:0   MisRate:0.00%    MPKI:0.00
PC:17bea     Total:11314      MisBP:0   MisRate:0.00%    MPKI:0.00
PC:17bee     Total:11277      MisBP:0   MisRate:0.00%    MPKI:0.00
PC:12bac     Total:1515      MisBP:0   MisRate:0.00%    MPKI:0.00
PC:200e6     Total:36694      MisBP:0   MisRate:0.00%    MPKI:0.00
PC:18650     Total:579      MisBP:0   MisRate:0.00%    MPKI:0.00
PC:40860     Total:25      MisBP:0   MisRate:0.00%    MPKI:0.00
PC:18654     Total:579      MisBP:0   MisRate:0.00%    MPKI:0.00
PC:40864     Total:25      MisBP:0   MisRate:0.00%    MPKI:0.00
PC:18658     Total:579      MisBP:0   MisRate:0.00%    MPKI:0.00
PC:40868     Total:25      MisBP:0   MisRate:0.00%    MPKI:0.00
PC:1865c     Total:579      MisBP:0   MisRate:0.00%    MPKI:0.00
PC:18660     Total:579      MisBP:0   MisRate:0.00%    MPKI:0.00
PC:17fe8     Total:3853      MisBP:0   MisRate:0.00%    MPKI:0.00
PC:40870     Total:21      MisBP:0   MisRate:0.00%    MPKI:0.00
PC:15ec0     Total:307      MisBP:0   MisRate:0.00%    MPKI:0.00
PC:4085c     Total:25      MisBP:0   MisRate:0.00%    MPKI:0.00
PC:15ec4     Total:19      MisBP:0   MisRate:0.00%    MPKI:0.00
PC:15df6     Total:3273      MisBP:0   MisRate:0.00%    MPKI:0.00
PC:15dfe     Total:1      MisBP:0   MisRate:0.00%    MPKI:0.00
PC:2016a     Total:66258      MisBP:0   MisRate:0.00%    MPKI:0.00
PC:15f48     Total:8      MisBP:0   MisRate:0.00%    MPKI:0.00
PC:2016e     Total:66247      MisBP:0   MisRate:0.00%    MPKI:0.00
PC:15f4c     Total:8      MisBP:0   MisRate:0.00%    MPKI:0.00
PC:20170     Total:66236      MisBP:0   MisRate:0.00%    MPKI:0.00
PC:15f4e     Total:2262      MisBP:0   MisRate:0.00%    MPKI:0.00
PC:1ffda     Total:10836      MisBP:0   MisRate:0.00%    MPKI:0.00
PC:16e5c     Total:2956      MisBP:0   MisRate:0.00%    MPKI:0.00
PC:16fee     Total:42      MisBP:0   MisRate:0.00%    MPKI:0.00
PC:16e50     Total:3045      MisBP:0   MisRate:0.00%    MPKI:0.00
PC:21072     Total:8189      MisBP:0   MisRate:0.00%    MPKI:0.00
PC:16ff2     Total:42      MisBP:0   MisRate:0.00%    MPKI:0.00
PC:16e54     Total:3045      MisBP:0   MisRate:0.00%    MPKI:0.00
PC:16ff4     Total:42      MisBP:0   MisRate:0.00%    MPKI:0.00
PC:21078     Total:8061      MisBP:0   MisRate:0.00%    MPKI:0.00
PC:16ff8     Total:42      MisBP:0   MisRate:0.00%    MPKI:0.00
PC:16e5a     Total:2956      MisBP:0   MisRate:0.00%    MPKI:0.00
PC:2107c     Total:8059      MisBP:0   MisRate:0.00%    MPKI:0.00
PC:16ffa     Total:42      MisBP:0   MisRate:0.00%    MPKI:0.00
PC:20178     Total:66181      MisBP:0   MisRate:0.00%    MPKI:0.00
PC:2107e     Total:7966      MisBP:0   MisRate:0.00%    MPKI:0.00
PC:16ffe     Total:26      MisBP:0   MisRate:0.00%    MPKI:0.00
PC:16e60     Total:2956      MisBP:0   MisRate:0.00%    MPKI:0.00
PC:21082     Total:7946      MisBP:0   MisRate:0.00%    MPKI:0.00
PC:16dd4     Total:8258      MisBP:0   MisRate:0.00%    MPKI:0.00
PC:16dd8     Total:8258      MisBP:0   MisRate:0.00%    MPKI:0.00
PC:1d2ca     Total:1067      MisBP:0   MisRate:0.00%    MPKI:0.00
PC:1d2ce     Total:961      MisBP:0   MisRate:0.00%    MPKI:0.00
PC:18644     Total:1286      MisBP:0   MisRate:0.00%    MPKI:0.00
PC:1864c     Total:1285      MisBP:0   MisRate:0.00%    MPKI:0.00
PC:161e4     Total:625      MisBP:0   MisRate:0.00%    MPKI:0.00
PC:2025a     Total:44682      MisBP:0   MisRate:0.00%    MPKI:0.00
PC:1603a     Total:239      MisBP:0   MisRate:0.00%    MPKI:0.00
PC:2025c     Total:44682      MisBP:0   MisRate:0.00%    MPKI:0.00
PC:161d8     Total:695      MisBP:0   MisRate:0.00%    MPKI:0.00
PC:1603c     Total:6863      MisBP:0   MisRate:0.00%    MPKI:0.00
PC:2025e     Total:44682      MisBP:0   MisRate:0.00%    MPKI:0.00
PC:20262     Total:39901      MisBP:0   MisRate:0.00%    MPKI:0.00
PC:16042     Total:5882      MisBP:0   MisRate:0.00%    MPKI:0.00
PC:20264     Total:39901      MisBP:0   MisRate:0.00%    MPKI:0.00
PC:161e0     Total:625      MisBP:0   MisRate:0.00%    MPKI:0.00
PC:20268     Total:39900      MisBP:0   MisRate:0.00%    MPKI:0.00
PC:1fffe     Total:11050      MisBP:0   MisRate:0.00%    MPKI:0.00
PC:1604a     Total:4923      MisBP:0   MisRate:0.00%    MPKI:0.00
PC:2026e     Total:11301      MisBP:0   MisRate:0.00%    MPKI:0.00
PC:161ea     Total:464      MisBP:0   MisRate:0.00%    MPKI:0.00
PC:20272     Total:11301      MisBP:0   MisRate:0.00%    MPKI:0.00
PC:161ee     Total:232      MisBP:0   MisRate:0.00%    MPKI:0.00
PC:16052     Total:1298      MisBP:0   MisRate:0.00%    MPKI:0.00
PC:20274     Total:11301      MisBP:0   MisRate:0.00%    MPKI:0.00
PC:161f0     Total:232      MisBP:0   MisRate:0.00%    MPKI:0.00
PC:16054     Total:2552      MisBP:0   MisRate:0.00%    MPKI:0.00
PC:20276     Total:11408      MisBP:0   MisRate:0.00%    MPKI:0.00
PC:2018a     Total:59380      MisBP:0   MisRate:0.00%    MPKI:0.00
PC:15f56     Total:2179      MisBP:0   MisRate:0.00%    MPKI:0.00
PC:1ffde     Total:10836      MisBP:0   MisRate:0.00%    MPKI:0.00
PC:2017c     Total:66938      MisBP:0   MisRate:0.00%    MPKI:0.00
PC:15f5a     Total:2179      MisBP:0   MisRate:0.00%    MPKI:0.00
PC:1ffe2     Total:10836      MisBP:0   MisRate:0.00%    MPKI:0.00
PC:20180     Total:59397      MisBP:0   MisRate:0.00%    MPKI:0.00
PC:15f5e     Total:2179      MisBP:0   MisRate:0.00%    MPKI:0.00
PC:1ffe6     Total:10835      MisBP:0   MisRate:0.00%    MPKI:0.00
PC:20184     Total:59394      MisBP:0   MisRate:0.00%    MPKI:0.00
PC:15f62     Total:2179      MisBP:0   MisRate:0.00%    MPKI:0.00
PC:1ffea     Total:10789      MisBP:0   MisRate:0.00%    MPKI:0.00
PC:2106e     Total:8189      MisBP:0   MisRate:0.00%    MPKI:0.00
PC:15f68     Total:1719      MisBP:0   MisRate:0.00%    MPKI:0.00
PC:1ffee     Total:11050      MisBP:0   MisRate:0.00%    MPKI:0.00
PC:15dd0     Total:729      MisBP:0   MisRate:0.00%    MPKI:0.00
PC:1fff2     Total:11050      MisBP:0   MisRate:0.00%    MPKI:0.00
PC:1fff6     Total:11050      MisBP:0   MisRate:0.00%    MPKI:0.00
PC:15f72     Total:6478      MisBP:0   MisRate:0.00%    MPKI:0.00
PC:15dd8     Total:688      MisBP:0   MisRate:0.00%    MPKI:0.00
PC:1fffa     Total:11050      MisBP:0   MisRate:0.00%    MPKI:0.00
PC:15f76     Total:4226      MisBP:0   MisRate:0.00%    MPKI:0.00
PC:15ddc     Total:688      MisBP:0   MisRate:0.00%    MPKI:0.00
PC:182e0     Total:26495      MisBP:0   MisRate:0.00%    MPKI:0.00
PC:1d312     Total:3      MisBP:0   MisRate:0.00%    MPKI:0.00
PC:182d2     Total:30430      MisBP:0   MisRate:0.00%    MPKI:0.00
PC:40b5e     Total:1      MisBP:0   MisRate:0.00%    MPKI:0.00
PC:182d6     Total:30397      MisBP:0   MisRate:0.00%    MPKI:0.00
PC:1d318     Total:3      MisBP:0   MisRate:0.00%    MPKI:0.00
PC:40b62     Total:1      MisBP:0   MisRate:0.00%    MPKI:0.00
PC:182da     Total:26497      MisBP:0   MisRate:0.00%    MPKI:0.00
PC:1d31c     Total:3      MisBP:0   MisRate:0.00%    MPKI:0.00
PC:182dc     Total:26495      MisBP:0   MisRate:0.00%    MPKI:0.00
PC:1d31e     Total:3      MisBP:0   MisRate:0.00%    MPKI:0.00
PC:40b68     Total:1      MisBP:0   MisRate:0.00%    MPKI:0.00
PC:182d0     Total:30439      MisBP:0   MisRate:0.00%    MPKI:0.00
PC:40b6c     Total:1      MisBP:0   MisRate:0.00%    MPKI:0.00
PC:182e4     Total:26427      MisBP:0   MisRate:0.00%    MPKI:0.00
PC:182e8     Total:26427      MisBP:0   MisRate:0.00%    MPKI:0.00
PC:1d32a     Total:1      MisBP:0   MisRate:0.00%    MPKI:0.00
PC:40b74     Total:1      MisBP:0   MisRate:0.00%    MPKI:0.00
PC:182ec     Total:26427      MisBP:0   MisRate:0.00%    MPKI:0.00
PC:40b78     Total:1      MisBP:0   MisRate:0.00%    MPKI:0.00
PC:182f0     Total:26379      MisBP:0   MisRate:0.00%    MPKI:0.00
PC:1d332     Total:1      MisBP:0   MisRate:0.00%    MPKI:0.00
PC:1d336     Total:3      MisBP:0   MisRate:0.00%    MPKI:0.00
PC:40b4a     Total:1      MisBP:0   MisRate:0.00%    MPKI:0.00
PC:18286     Total:31458      MisBP:0   MisRate:0.00%    MPKI:0.00
PC:1d2c8     Total:73      MisBP:0   MisRate:0.00%    MPKI:0.00
PC:1828a     Total:31458      MisBP:0   MisRate:0.00%    MPKI:0.00
PC:1829a     Total:31458      MisBP:0   MisRate:0.00%    MPKI:0.00
PC:40b3c     Total:2      MisBP:0   MisRate:0.00%    MPKI:0.00
PC:182b4     Total:31583      MisBP:0   MisRate:0.00%    MPKI:0.00
PC:40b44     Total:1      MisBP:0   MisRate:0.00%    MPKI:0.00
PC:182bc     Total:31438      MisBP:0   MisRate:0.00%    MPKI:0.00
PC:40b48     Total:1      MisBP:0   MisRate:0.00%    MPKI:0.00
PC:182c0     Total:30399      MisBP:0   MisRate:0.00%    MPKI:0.00
PC:1d302     Total:4      MisBP:0   MisRate:0.00%    MPKI:0.00
PC:182f8     Total:23453      MisBP:0   MisRate:0.00%    MPKI:0.00
PC:182c2     Total:30393      MisBP:0   MisRate:0.00%    MPKI:0.00
PC:1d304     Total:4      MisBP:0   MisRate:0.00%    MPKI:0.00
PC:182c6     Total:30393      MisBP:0   MisRate:0.00%    MPKI:0.00
PC:1d308     Total:8      MisBP:0   MisRate:0.00%    MPKI:0.00
PC:40b52     Total:1      MisBP:0   MisRate:0.00%    MPKI:0.00
PC:182ca     Total:30439      MisBP:0   MisRate:0.00%    MPKI:0.00
PC:1d30c     Total:4      MisBP:0   MisRate:0.00%    MPKI:0.00
PC:182cc     Total:30439      MisBP:0   MisRate:0.00%    MPKI:0.00
PC:1d30e     Total:4      MisBP:0   MisRate:0.00%    MPKI:0.00
PC:40b58     Total:1      MisBP:0   MisRate:0.00%    MPKI:0.00
PC:192ec     Total:10434      MisBP:0   MisRate:0.00%    MPKI:0.00
PC:192ca     Total:10358      MisBP:0   MisRate:0.00%    MPKI:0.00
PC:1e30c     Total:28      MisBP:0   MisRate:0.00%    MPKI:0.00
PC:1e30e     Total:28      MisBP:0   MisRate:0.00%    MPKI:0.00
PC:192d0     Total:10303      MisBP:0   MisRate:0.00%    MPKI:0.00
PC:192d2     Total:10303      MisBP:0   MisRate:0.00%    MPKI:0.00
PC:1e314     Total:27      MisBP:0   MisRate:0.00%    MPKI:0.00
PC:192d6     Total:10294      MisBP:0   MisRate:0.00%    MPKI:0.00
PC:192d8     Total:9997      MisBP:0   MisRate:0.00%    MPKI:0.00
PC:1e31a     Total:27      MisBP:0   MisRate:0.00%    MPKI:0.00
PC:192dc     Total:10002      MisBP:0   MisRate:0.00%    MPKI:0.00
PC:1e31e     Total:27      MisBP:0   MisRate:0.00%    MPKI:0.00
PC:192c6     Total:10373      MisBP:0   MisRate:0.00%    MPKI:0.00
PC:19300     Total:250      MisBP:0   MisRate:0.00%    MPKI:0.00
PC:211f0     Total:8249      MisBP:0   MisRate:0.00%    MPKI:0.00
PC:16fce     Total:5572      MisBP:0   MisRate:0.00%    MPKI:0.00
PC:16fd2     Total:5572      MisBP:0   MisRate:0.00%    MPKI:0.00
PC:21204     Total:8106      MisBP:0   MisRate:0.00%    MPKI:0.00
PC:16fe2     Total:48      MisBP:0   MisRate:0.00%    MPKI:0.00
PC:16fe6     Total:48      MisBP:0   MisRate:0.00%    MPKI:0.00
PC:2106c     Total:8192      MisBP:0   MisRate:0.00%    MPKI:0.00
PC:16fea     Total:42      MisBP:0   MisRate:0.00%    MPKI:0.00
PC:16e4c     Total:3045      MisBP:0   MisRate:0.00%    MPKI:0.00
PC:15d8e     Total:120      MisBP:0   MisRate:0.00%    MPKI:0.00
PC:182fa     Total:23453      MisBP:0   MisRate:0.00%    MPKI:0.00
PC:1d33c     Total:1      MisBP:0   MisRate:0.00%    MPKI:0.00
PC:15d7a     Total:4524      MisBP:0   MisRate:0.00%    MPKI:0.00
PC:1ff9e     Total:5112      MisBP:0   MisRate:0.00%    MPKI:0.00
PC:15d7c     Total:4524      MisBP:0   MisRate:0.00%    MPKI:0.00
PC:15d82     Total:120      MisBP:0   MisRate:0.00%    MPKI:0.00
PC:1ffa8     Total:94810      MisBP:0   MisRate:0.00%    MPKI:0.00
PC:15d86     Total:120      MisBP:0   MisRate:0.00%    MPKI:0.00
PC:15d88     Total:120      MisBP:0   MisRate:0.00%    MPKI:0.00
PC:15d8c     Total:120      MisBP:0   MisRate:0.00%    MPKI:0.00
PC:1ffb0     Total:10156      MisBP:0   MisRate:0.00%    MPKI:0.00
PC:1d4c8     Total:12035      MisBP:0   MisRate:0.00%    MPKI:0.00
PC:15d92     Total:116      MisBP:0   MisRate:0.00%    MPKI:0.00
PC:1ffb6     Total:3443      MisBP:0   MisRate:0.00%    MPKI:0.00
PC:15d94     Total:116      MisBP:0   MisRate:0.00%    MPKI:0.00
PC:15d96     Total:116      MisBP:0   MisRate:0.00%    MPKI:0.00
PC:1ffba     Total:3443      MisBP:0   MisRate:0.00%    MPKI:0.00
PC:15d98     Total:464      MisBP:0   MisRate:0.00%    MPKI:0.00
PC:192c0     Total:10373      MisBP:0   MisRate:0.00%    MPKI:0.00
PC:1e302     Total:577      MisBP:0   MisRate:0.00%    MPKI:0.00
PC:192c2     Total:10373      MisBP:0   MisRate:0.00%    MPKI:0.00
PC:1e304     Total:577      MisBP:0   MisRate:0.00%    MPKI:0.00
PC:194ba     Total:18622      MisBP:0   MisRate:0.00%    MPKI:0.00
PC:19494     Total:21452      MisBP:0   MisRate:0.00%    MPKI:0.00
PC:19496     Total:21417      MisBP:0   MisRate:0.00%    MPKI:0.00
PC:1949a     Total:21404      MisBP:0   MisRate:0.00%    MPKI:0.00
PC:194a0     Total:19763      MisBP:0   MisRate:0.00%    MPKI:0.00
PC:194a2     Total:19338      MisBP:0   MisRate:0.00%    MPKI:0.00
PC:194a4     Total:19316      MisBP:0   MisRate:0.00%    MPKI:0.00
PC:194a8     Total:19183      MisBP:0   MisRate:0.00%    MPKI:0.00
PC:194ac     Total:19167      MisBP:0   MisRate:0.00%    MPKI:0.00
PC:194b2     Total:19227      MisBP:0   MisRate:0.00%    MPKI:0.00
PC:194b4     Total:19227      MisBP:0   MisRate:0.00%    MPKI:0.00
PC:194b8     Total:19173      MisBP:0   MisRate:0.00%    MPKI:0.00
PC:19492     Total:21471      MisBP:0   MisRate:0.00%    MPKI:0.00
PC:194bc     Total:18590      MisBP:0   MisRate:0.00%    MPKI:0.00
PC:194c2     Total:1901      MisBP:0   MisRate:0.00%    MPKI:0.00
PC:194c6     Total:1901      MisBP:0   MisRate:0.00%    MPKI:0.00
PC:194cc     Total:690      MisBP:0   MisRate:0.00%    MPKI:0.00
PC:194ce     Total:690      MisBP:0   MisRate:0.00%    MPKI:0.00
PC:194d0     Total:690      MisBP:0   MisRate:0.00%    MPKI:0.00
PC:194d2     Total:60      MisBP:0   MisRate:0.00%    MPKI:0.00
PC:194d4     Total:60      MisBP:0   MisRate:0.00%    MPKI:0.00
PC:194d6     Total:60      MisBP:0   MisRate:0.00%    MPKI:0.00
PC:194d8     Total:60      MisBP:0   MisRate:0.00%    MPKI:0.00
PC:19462     Total:16108      MisBP:0   MisRate:0.00%    MPKI:0.00
PC:1944e     Total:30581      MisBP:0   MisRate:0.00%    MPKI:0.00
PC:19450     Total:30576      MisBP:0   MisRate:0.00%    MPKI:0.00
PC:41cda     Total:1      MisBP:0   MisRate:0.00%    MPKI:0.00
PC:19452     Total:29303      MisBP:0   MisRate:0.00%    MPKI:0.00
PC:41cde     Total:1      MisBP:0   MisRate:0.00%    MPKI:0.00
PC:19456     Total:29364      MisBP:0   MisRate:0.00%    MPKI:0.00
PC:19458     Total:29363      MisBP:0   MisRate:0.00%    MPKI:0.00
PC:41ce4     Total:1      MisBP:0   MisRate:0.00%    MPKI:0.00
PC:1945c     Total:29361      MisBP:0   MisRate:0.00%    MPKI:0.00
PC:1945e     Total:29361      MisBP:0   MisRate:0.00%    MPKI:0.00
PC:41ce8     Total:1      MisBP:0   MisRate:0.00%    MPKI:0.00
PC:194da     Total:830      MisBP:0   MisRate:0.00%    MPKI:0.00
PC:41cec     Total:1      MisBP:0   MisRate:0.00%    MPKI:0.00
PC:19464     Total:16104      MisBP:0   MisRate:0.00%    MPKI:0.00
PC:19466     Total:15551      MisBP:0   MisRate:0.00%    MPKI:0.00
PC:19468     Total:15540      MisBP:0   MisRate:0.00%    MPKI:0.00
PC:1946e     Total:5533      MisBP:0   MisRate:0.00%    MPKI:0.00
PC:19472     Total:5543      MisBP:0   MisRate:0.00%    MPKI:0.00
PC:19474     Total:5543      MisBP:0   MisRate:0.00%    MPKI:0.00
PC:19478     Total:5519      MisBP:0   MisRate:0.00%    MPKI:0.00
PC:1947c     Total:5108      MisBP:0   MisRate:0.00%    MPKI:0.00
PC:1948e     Total:29991      MisBP:0   MisRate:0.00%    MPKI:0.00
PC:19aee     Total:19304      MisBP:0   MisRate:0.00%    MPKI:0.00
PC:19ad6     Total:19967      MisBP:0   MisRate:0.00%    MPKI:0.00
PC:19ad8     Total:20206      MisBP:0   MisRate:0.00%    MPKI:0.00
PC:19ada     Total:20206      MisBP:0   MisRate:0.00%    MPKI:0.00
PC:19adc     Total:20206      MisBP:0   MisRate:0.00%    MPKI:0.00
PC:19ade     Total:20206      MisBP:0   MisRate:0.00%    MPKI:0.00
PC:19ae2     Total:20206      MisBP:0   MisRate:0.00%    MPKI:0.00
PC:19ae4     Total:20205      MisBP:0   MisRate:0.00%    MPKI:0.00
PC:19ae6     Total:20198      MisBP:0   MisRate:0.00%    MPKI:0.00
PC:19ae8     Total:19304      MisBP:0   MisRate:0.00%    MPKI:0.00
PC:19aea     Total:19304      MisBP:0   MisRate:0.00%    MPKI:0.00
PC:19aec     Total:19304      MisBP:0   MisRate:0.00%    MPKI:0.00
PC:19ad4     Total:21006      MisBP:0   MisRate:0.00%    MPKI:0.00
PC:19af0     Total:19304      MisBP:0   MisRate:0.00%    MPKI:0.00
PC:19af2     Total:19304      MisBP:0   MisRate:0.00%    MPKI:0.00
PC:19af4     Total:19304      MisBP:0   MisRate:0.00%    MPKI:0.00
PC:19af6     Total:19303      MisBP:0   MisRate:0.00%    MPKI:0.00
PC:19af8     Total:18478      MisBP:0   MisRate:0.00%    MPKI:0.00
PC:19afa     Total:18478      MisBP:0   MisRate:0.00%    MPKI:0.00
PC:19480     Total:4749      MisBP:0   MisRate:0.00%    MPKI:0.00
PC:19482     Total:4749      MisBP:0   MisRate:0.00%    MPKI:0.00
PC:19486     Total:1613      MisBP:0   MisRate:0.00%    MPKI:0.00
PC:19488     Total:1613      MisBP:0   MisRate:0.00%    MPKI:0.00
PC:17bfe     Total:3889      MisBP:0   MisRate:0.00%    MPKI:0.00
PC:194dc     Total:830      MisBP:0   MisRate:0.00%    MPKI:0.00
PC:194de     Total:830      MisBP:0   MisRate:0.00%    MPKI:0.00
PC:194e0     Total:830      MisBP:0   MisRate:0.00%    MPKI:0.00
PC:17bf2     Total:6576      MisBP:0   MisRate:0.00%    MPKI:0.00
PC:12bb0     Total:1513      MisBP:0   MisRate:0.00%    MPKI:0.00
PC:17bf4     Total:6576      MisBP:0   MisRate:0.00%    MPKI:0.00
PC:12bb2     Total:1465      MisBP:0   MisRate:0.00%    MPKI:0.00
PC:17bf6     Total:6576      MisBP:0   MisRate:0.00%    MPKI:0.00
PC:17bfa     Total:5176      MisBP:0   MisRate:0.00%    MPKI:0.00
PC:12bb8     Total:1426      MisBP:0   MisRate:0.00%    MPKI:0.00
PC:17bfc     Total:5176      MisBP:0   MisRate:0.00%    MPKI:0.00
PC:41cd6     Total:1      MisBP:0   MisRate:0.00%    MPKI:0.00
PC:12bbc     Total:1426      MisBP:0   MisRate:0.00%    MPKI:0.00
PC:2105e     Total:17015      MisBP:0   MisRate:0.00%    MPKI:0.00
PC:16e3c     Total:5863      MisBP:0   MisRate:0.00%    MPKI:0.00
PC:19ac0     Total:20477      MisBP:0   MisRate:0.00%    MPKI:0.00
[...]
PC:19286     Total:34351      MisBP:1913   MisRate:5.57%    MPKI:0.01
PC:210f8     Total:9257      MisBP:1924   MisRate:20.78%    MPKI:0.01
PC:17b78     Total:74203      MisBP:1930   MisRate:2.60%    MPKI:0.01
PC:1946c     Total:15540      MisBP:1945   MisRate:12.52%    MPKI:0.01
PC:13a22     Total:35315      MisBP:1978   MisRate:5.60%    MPKI:0.01
PC:151a8     Total:7554      MisBP:1980   MisRate:26.21%    MPKI:0.01
PC:1732e     Total:18712      MisBP:2019   MisRate:10.79%    MPKI:0.01
PC:1651c     Total:266846      MisBP:2050   MisRate:0.77%    MPKI:0.01
PC:15b44     Total:9504      MisBP:2053   MisRate:21.60%    MPKI:0.01
PC:15ae0     Total:7528      MisBP:2075   MisRate:27.56%    MPKI:0.01
PC:196b0     Total:31477      MisBP:2076   MisRate:6.60%    MPKI:0.01
PC:17624     Total:13901      MisBP:2080   MisRate:14.96%    MPKI:0.01
PC:1cfbe     Total:33794      MisBP:2086   MisRate:6.17%    MPKI:0.01
PC:20054     Total:14921      MisBP:2087   MisRate:13.99%    MPKI:0.01
PC:14d7e     Total:6863      MisBP:2089   MisRate:30.44%    MPKI:0.01
PC:17694     Total:18772      MisBP:2121   MisRate:11.30%    MPKI:0.01
PC:1d908     Total:8206      MisBP:2198   MisRate:26.79%    MPKI:0.01
PC:20e26     Total:21161      MisBP:2202   MisRate:10.41%    MPKI:0.01
PC:1d56c     Total:27126      MisBP:2209   MisRate:8.14%    MPKI:0.01
PC:1d228     Total:14927      MisBP:2213   MisRate:14.83%    MPKI:0.01
PC:197c8     Total:30792      MisBP:2216   MisRate:7.20%    MPKI:0.01
PC:18f72     Total:20213      MisBP:2217   MisRate:10.97%    MPKI:0.01
PC:123ac     Total:134389      MisBP:2220   MisRate:1.65%    MPKI:0.01
PC:14ec4     Total:21023      MisBP:2245   MisRate:10.68%    MPKI:0.01
PC:157a6     Total:11796      MisBP:2269   MisRate:19.24%    MPKI:0.01
PC:1cb2a     Total:11688      MisBP:2286   MisRate:19.56%    MPKI:0.01
PC:19270     Total:43919      MisBP:2293   MisRate:5.22%    MPKI:0.01
PC:190f4     Total:17847      MisBP:2298   MisRate:12.88%    MPKI:0.01
PC:16e34     Total:40803      MisBP:2324   MisRate:5.70%    MPKI:0.01
PC:20eb4     Total:14249      MisBP:2336   MisRate:16.39%    MPKI:0.01
PC:195f0     Total:25360      MisBP:2340   MisRate:9.23%    MPKI:0.01
PC:177c8     Total:18257      MisBP:2420   MisRate:13.26%    MPKI:0.01
PC:19a00     Total:11174      MisBP:2424   MisRate:21.69%    MPKI:0.01
PC:17630     Total:15760      MisBP:2488   MisRate:15.79%    MPKI:0.01
PC:18ed6     Total:11191      MisBP:2497   MisRate:22.31%    MPKI:0.01
PC:175f6     Total:417532      MisBP:2502   MisRate:0.60%    MPKI:0.01
PC:174ee     Total:79411      MisBP:2504   MisRate:3.15%    MPKI:0.01
PC:153d2     Total:8144      MisBP:2510   MisRate:30.82%    MPKI:0.01
PC:18ee8     Total:25721      MisBP:2522   MisRate:9.81%    MPKI:0.01
PC:15a4e     Total:50566      MisBP:2533   MisRate:5.01%    MPKI:0.01
PC:18efe     Total:24479      MisBP:2535   MisRate:10.36%    MPKI:0.01
PC:1fe94     Total:252116      MisBP:2597   MisRate:1.03%    MPKI:0.01
PC:16768     Total:40279      MisBP:2614   MisRate:6.49%    MPKI:0.01
PC:1c9e8     Total:27037      MisBP:2628   MisRate:9.72%    MPKI:0.01
PC:173c0     Total:20762      MisBP:2636   MisRate:12.70%    MPKI:0.01
PC:1ff16     Total:235092      MisBP:2659   MisRate:1.13%    MPKI:0.01
PC:21104     Total:10496      MisBP:2671   MisRate:25.45%    MPKI:0.01
PC:15ac0     Total:25935      MisBP:2671   MisRate:10.30%    MPKI:0.01
PC:1728c     Total:35411      MisBP:2699   MisRate:7.62%    MPKI:0.01
PC:1ff92     Total:397881      MisBP:2769   MisRate:0.70%    MPKI:0.01
PC:1feaa     Total:232372      MisBP:2794   MisRate:1.20%    MPKI:0.01
PC:198dc     Total:18788      MisBP:2824   MisRate:15.03%    MPKI:0.01
PC:1ff20     Total:233147      MisBP:2841   MisRate:1.22%    MPKI:0.01
PC:18fec     Total:4242      MisBP:2843   MisRate:67.02%    MPKI:0.01
PC:1fea0     Total:234431      MisBP:2858   MisRate:1.22%    MPKI:0.01
PC:17856     Total:89287      MisBP:2869   MisRate:3.21%    MPKI:0.01
PC:1750a     Total:78624      MisBP:3035   MisRate:3.86%    MPKI:0.01
PC:1d7b8     Total:13538      MisBP:3036   MisRate:22.43%    MPKI:0.01
PC:15b86     Total:7919      MisBP:3037   MisRate:38.35%    MPKI:0.01
PC:1ff02     Total:262602      MisBP:3102   MisRate:1.18%    MPKI:0.01
PC:12d5e     Total:37330      MisBP:3116   MisRate:8.35%    MPKI:0.01
PC:17f7c     Total:179421      MisBP:3120   MisRate:1.74%    MPKI:0.01
PC:1d6b8     Total:14333      MisBP:3128   MisRate:21.82%    MPKI:0.01
PC:188f0     Total:95188      MisBP:3139   MisRate:3.30%    MPKI:0.01
PC:153ac     Total:8138      MisBP:3151   MisRate:38.72%    MPKI:0.01
PC:16e00     Total:77209      MisBP:3193   MisRate:4.14%    MPKI:0.01
PC:19914     Total:22840      MisBP:3253   MisRate:14.24%    MPKI:0.01
PC:1952e     Total:47395      MisBP:3255   MisRate:6.87%    MPKI:0.01
PC:1db80     Total:57648      MisBP:3323   MisRate:5.76%    MPKI:0.01
PC:197e0     Total:31726      MisBP:3334   MisRate:10.51%    MPKI:0.01
PC:2104e     Total:21742      MisBP:3344   MisRate:15.38%    MPKI:0.01
PC:1d6e0     Total:112256      MisBP:3387   MisRate:3.02%    MPKI:0.01
PC:20004     Total:9845      MisBP:3449   MisRate:35.03%    MPKI:0.01
PC:173a6     Total:25473      MisBP:3466   MisRate:13.61%    MPKI:0.01
PC:12398     Total:62521      MisBP:3504   MisRate:5.60%    MPKI:0.01
PC:1522a     Total:9861      MisBP:3521   MisRate:35.71%    MPKI:0.01
PC:19460     Total:29360      MisBP:3557   MisRate:12.12%    MPKI:0.01
PC:192bc     Total:36651      MisBP:3587   MisRate:9.79%    MPKI:0.01
PC:18098     Total:36042      MisBP:3604   MisRate:10.00%    MPKI:0.01
PC:1d71c     Total:14439      MisBP:3605   MisRate:24.97%    MPKI:0.01
PC:1ff84     Total:367788      MisBP:3609   MisRate:0.98%    MPKI:0.01
PC:14eae     Total:46319      MisBP:3731   MisRate:8.06%    MPKI:0.01
PC:167fe     Total:34151      MisBP:3769   MisRate:11.04%    MPKI:0.01
PC:17842     Total:88180      MisBP:3814   MisRate:4.33%    MPKI:0.01
PC:18116     Total:187321      MisBP:3815   MisRate:2.04%    MPKI:0.01
PC:14d34     Total:192370      MisBP:3819   MisRate:1.99%    MPKI:0.01
PC:12dba     Total:33580      MisBP:3824   MisRate:11.39%    MPKI:0.01
PC:175e6     Total:28182      MisBP:3898   MisRate:13.83%    MPKI:0.01
PC:189da     Total:77437      MisBP:3904   MisRate:5.04%    MPKI:0.01
PC:1904a     Total:26304      MisBP:3913   MisRate:14.88%    MPKI:0.01
PC:1db52     Total:81212      MisBP:3940   MisRate:4.85%    MPKI:0.01
PC:1d6fe     Total:89780      MisBP:3950   MisRate:4.40%    MPKI:0.01
PC:1cfb4     Total:33844      MisBP:3994   MisRate:11.80%    MPKI:0.01
PC:1937e     Total:47701      MisBP:4001   MisRate:8.39%    MPKI:0.01
PC:15c9a     Total:32386      MisBP:4002   MisRate:12.36%    MPKI:0.01
PC:15192     Total:10506      MisBP:4011   MisRate:38.18%    MPKI:0.01
PC:199a6     Total:47261      MisBP:4056   MisRate:8.58%    MPKI:0.01
PC:2026c     Total:39900      MisBP:4072   MisRate:10.21%    MPKI:0.01
PC:19800     Total:32793      MisBP:4075   MisRate:12.43%    MPKI:0.01
PC:1d802     Total:19941      MisBP:4129   MisRate:20.71%    MPKI:0.01
PC:18eb4     Total:39283      MisBP:4168   MisRate:10.61%    MPKI:0.01
PC:198d0     Total:27377      MisBP:4191   MisRate:15.31%    MPKI:0.01
PC:1d368     Total:53648      MisBP:4212   MisRate:7.85%    MPKI:0.01
PC:12274     Total:161019      MisBP:4214   MisRate:2.62%    MPKI:0.01
PC:19358     Total:58426      MisBP:4301   MisRate:7.36%    MPKI:0.01
PC:18714     Total:53599      MisBP:4312   MisRate:8.04%    MPKI:0.01
PC:1ccb6     Total:39724      MisBP:4313   MisRate:10.86%    MPKI:0.01
PC:189ee     Total:51864      MisBP:4337   MisRate:8.36%    MPKI:0.01
PC:1ff0c     Total:258283      MisBP:4350   MisRate:1.68%    MPKI:0.01
PC:1560c     Total:24413      MisBP:4408   MisRate:18.06%    MPKI:0.01
PC:1fe8e     Total:256024      MisBP:4439   MisRate:1.73%    MPKI:0.01
PC:1d9d0     Total:134106      MisBP:4493   MisRate:3.35%    MPKI:0.01
PC:153f8     Total:40886      MisBP:4533   MisRate:11.09%    MPKI:0.01
PC:19490     Total:29893      MisBP:4563   MisRate:15.26%    MPKI:0.01
PC:1db6c     Total:76258      MisBP:4575   MisRate:6.00%    MPKI:0.01
PC:1517c     Total:12234      MisBP:4642   MisRate:37.94%    MPKI:0.01
PC:19186     Total:81686      MisBP:4658   MisRate:5.70%    MPKI:0.02
PC:1cd2a     Total:40730      MisBP:4662   MisRate:11.45%    MPKI:0.02
PC:16f7e     Total:71241      MisBP:4753   MisRate:6.67%    MPKI:0.02
PC:1827a     Total:36882      MisBP:4804   MisRate:13.03%    MPKI:0.02
PC:1919c     Total:63327      MisBP:4845   MisRate:7.65%    MPKI:0.02
PC:2010e     Total:44825      MisBP:4901   MisRate:10.93%    MPKI:0.02
PC:211be     Total:32475      MisBP:4915   MisRate:15.13%    MPKI:0.02
PC:122ce     Total:897850      MisBP:4957   MisRate:0.55%    MPKI:0.02
PC:1ff2e     Total:315203      MisBP:5022   MisRate:1.59%    MPKI:0.02
PC:159e0     Total:66658      MisBP:5069   MisRate:7.60%    MPKI:0.02
PC:1fefe     Total:286281      MisBP:5082   MisRate:1.78%    MPKI:0.02
PC:19678     Total:28638      MisBP:5082   MisRate:17.75%    MPKI:0.02
PC:1da8e     Total:11844      MisBP:5108   MisRate:43.13%    MPKI:0.02
PC:122ec     Total:277370      MisBP:5182   MisRate:1.87%    MPKI:0.02
PC:18abe     Total:224974      MisBP:5209   MisRate:2.32%    MPKI:0.02
PC:193b0     Total:62147      MisBP:5316   MisRate:8.55%    MPKI:0.02
PC:1915c     Total:127172      MisBP:5476   MisRate:4.31%    MPKI:0.02
PC:18b00     Total:14627      MisBP:5629   MisRate:38.48%    MPKI:0.02
PC:16658     Total:189286      MisBP:5630   MisRate:2.97%    MPKI:0.02
PC:16d72     Total:153845      MisBP:5639   MisRate:3.67%    MPKI:0.02
PC:19342     Total:97360      MisBP:5650   MisRate:5.80%    MPKI:0.02
PC:1958e     Total:45046      MisBP:5697   MisRate:12.65%    MPKI:0.02
PC:20258     Total:40389      MisBP:5974   MisRate:14.79%    MPKI:0.02
PC:1d0f8     Total:29093      MisBP:6328   MisRate:21.75%    MPKI:0.02
PC:19554     Total:71246      MisBP:6337   MisRate:8.89%    MPKI:0.02
PC:1cd4a     Total:52665      MisBP:6419   MisRate:12.19%    MPKI:0.02
PC:194ee     Total:91620      MisBP:6437   MisRate:7.03%    MPKI:0.02
PC:1d4a0     Total:38822      MisBP:6606   MisRate:17.02%    MPKI:0.02
PC:19180     Total:102401      MisBP:7063   MisRate:6.90%    MPKI:0.02
PC:18acc     Total:221453      MisBP:7084   MisRate:3.20%    MPKI:0.02
PC:1febc     Total:433796      MisBP:7172   MisRate:1.65%    MPKI:0.02
PC:1d50a     Total:56300      MisBP:7330   MisRate:13.02%    MPKI:0.02
PC:193dc     Total:38547      MisBP:7438   MisRate:19.30%    MPKI:0.02
PC:1d58a     Total:44483      MisBP:7487   MisRate:16.83%    MPKI:0.02
PC:191f8     Total:47863      MisBP:7885   MisRate:16.47%    MPKI:0.03
PC:1dbae     Total:69070      MisBP:7902   MisRate:11.44%    MPKI:0.03
PC:155ea     Total:57543      MisBP:7915   MisRate:13.75%    MPKI:0.03
PC:1da88     Total:115044      MisBP:8021   MisRate:6.97%    MPKI:0.03
PC:123c2     Total:56468      MisBP:8060   MisRate:14.27%    MPKI:0.03
PC:14eb8     Total:32130      MisBP:8076   MisRate:25.14%    MPKI:0.03
PC:1ff34     Total:312231      MisBP:8127   MisRate:2.60%    MPKI:0.03
PC:12284     Total:746264      MisBP:8245   MisRate:1.10%    MPKI:0.03
PC:18bdc     Total:31486      MisBP:8287   MisRate:26.32%    MPKI:0.03
PC:19368     Total:57185      MisBP:8308   MisRate:14.53%    MPKI:0.03
PC:123a4     Total:47564      MisBP:8315   MisRate:17.48%    MPKI:0.03
PC:1fec2     Total:406305      MisBP:8473   MisRate:2.09%    MPKI:0.03
PC:122e4     Total:377018      MisBP:8562   MisRate:2.27%    MPKI:0.03
PC:12350     Total:198081      MisBP:8722   MisRate:4.40%    MPKI:0.03
PC:14d5e     Total:189956      MisBP:8793   MisRate:4.63%    MPKI:0.03
PC:1cb22     Total:513775      MisBP:8805   MisRate:1.71%    MPKI:0.03
PC:1da5a     Total:183003      MisBP:8812   MisRate:4.82%    MPKI:0.03
PC:19330     Total:143488      MisBP:8904   MisRate:6.21%    MPKI:0.03
PC:1d1ae     Total:74922      MisBP:9009   MisRate:12.02%    MPKI:0.03
PC:159e8     Total:35378      MisBP:9087   MisRate:25.69%    MPKI:0.03
PC:17b82     Total:69889      MisBP:9203   MisRate:13.17%    MPKI:0.03
PC:16660     Total:212585      MisBP:9258   MisRate:4.35%    MPKI:0.03
PC:1d570     Total:24228      MisBP:9267   MisRate:38.25%    MPKI:0.03
PC:188c2     Total:107858      MisBP:9416   MisRate:8.73%    MPKI:0.03
PC:17280     Total:340735      MisBP:9431   MisRate:2.77%    MPKI:0.03
PC:175f0     Total:430777      MisBP:9495   MisRate:2.20%    MPKI:0.03
PC:1d1ec     Total:56394      MisBP:9577   MisRate:16.98%    MPKI:0.03
PC:12342     Total:79395      MisBP:9635   MisRate:12.14%    MPKI:0.03
PC:1dbfa     Total:35813      MisBP:9691   MisRate:27.06%    MPKI:0.03
PC:17320     Total:44577      MisBP:9784   MisRate:21.95%    MPKI:0.03
PC:171d0     Total:30908      MisBP:9851   MisRate:31.87%    MPKI:0.03
PC:1d5ac     Total:43729      MisBP:9887   MisRate:22.61%    MPKI:0.03
PC:17f34     Total:214050      MisBP:10145   MisRate:4.74%    MPKI:0.03
PC:1d004     Total:13742      MisBP:10299   MisRate:74.95%    MPKI:0.03
PC:201ca     Total:45747      MisBP:10336   MisRate:22.59%    MPKI:0.03
PC:18e00     Total:677851      MisBP:10471   MisRate:1.54%    MPKI:0.03
PC:172f8     Total:345318      MisBP:10794   MisRate:3.13%    MPKI:0.03
PC:14d64     Total:152103      MisBP:10799   MisRate:7.10%    MPKI:0.03
PC:1724a     Total:54969      MisBP:11023   MisRate:20.05%    MPKI:0.04
PC:12292     Total:491298      MisBP:11484   MisRate:2.34%    MPKI:0.04
PC:17afa     Total:69552      MisBP:11522   MisRate:16.57%    MPKI:0.04
PC:1fe98     Total:243410      MisBP:11578   MisRate:4.76%    MPKI:0.04
PC:1d51a     Total:30417      MisBP:11606   MisRate:38.16%    MPKI:0.04
PC:174d8     Total:76695      MisBP:11641   MisRate:15.18%    MPKI:0.04
PC:3334c     Total:73139      MisBP:11692   MisRate:15.99%    MPKI:0.04
PC:1229e     Total:1030307      MisBP:11855   MisRate:1.15%    MPKI:0.04
PC:1cff8     Total:38019      MisBP:12339   MisRate:32.45%    MPKI:0.04
PC:15a8a     Total:32845      MisBP:12902   MisRate:39.28%    MPKI:0.04
PC:123b0     Total:131585      MisBP:12957   MisRate:9.85%    MPKI:0.04
PC:1916c     Total:113451      MisBP:13129   MisRate:11.57%    MPKI:0.04
PC:16f8e     Total:149828      MisBP:13638   MisRate:9.10%    MPKI:0.04
PC:1cac0     Total:489555      MisBP:14545   MisRate:2.97%    MPKI:0.05
PC:166e0     Total:237570      MisBP:14992   MisRate:6.31%    MPKI:0.05
PC:15028     Total:27608      MisBP:15324   MisRate:55.51%    MPKI:0.05
PC:18aae     Total:213301      MisBP:15486   MisRate:7.26%    MPKI:0.05
PC:1ff24     Total:231234      MisBP:15706   MisRate:6.79%    MPKI:0.05
PC:16f66     Total:265564      MisBP:16015   MisRate:6.03%    MPKI:0.05
PC:12334     Total:154085      MisBP:16074   MisRate:10.43%    MPKI:0.05
PC:1ff0e     Total:253987      MisBP:16522   MisRate:6.51%    MPKI:0.05
PC:18d0c     Total:352838      MisBP:16689   MisRate:4.73%    MPKI:0.05
PC:17224     Total:284502      MisBP:16875   MisRate:5.93%    MPKI:0.05
PC:19518     Total:90993      MisBP:17248   MisRate:18.96%    MPKI:0.06
PC:1230e     Total:292750      MisBP:17377   MisRate:5.94%    MPKI:0.06
PC:1231e     Total:154753      MisBP:17831   MisRate:11.52%    MPKI:0.06
PC:1782c     Total:96922      MisBP:17838   MisRate:18.40%    MPKI:0.06
PC:123be     Total:156798      MisBP:17882   MisRate:11.40%    MPKI:0.06
PC:1caee     Total:496148      MisBP:18052   MisRate:3.64%    MPKI:0.06
PC:17f76     Total:201245      MisBP:18491   MisRate:9.19%    MPKI:0.06
PC:1230a     Total:528959      MisBP:18773   MisRate:3.55%    MPKI:0.06
PC:1506e     Total:36708      MisBP:18832   MisRate:51.30%    MPKI:0.06
PC:1cad8     Total:497641      MisBP:19864   MisRate:3.99%    MPKI:0.06
PC:1ca7e     Total:102091      MisBP:19999   MisRate:19.59%    MPKI:0.06
PC:1811c     Total:215699      MisBP:20275   MisRate:9.40%    MPKI:0.07
PC:18c72     Total:441413      MisBP:24113   MisRate:5.46%    MPKI:0.08
PC:1666a     Total:181642      MisBP:24629   MisRate:13.56%    MPKI:0.08
PC:122f0     Total:267406      MisBP:25793   MisRate:9.65%    MPKI:0.08
PC:18006     Total:209960      MisBP:26222   MisRate:12.49%    MPKI:0.08
PC:1ff56     Total:253277      MisBP:26950   MisRate:10.64%    MPKI:0.09
PC:122fa     Total:482943      MisBP:27257   MisRate:5.64%    MPKI:0.09
PC:16510     Total:194725      MisBP:27258   MisRate:14.00%    MPKI:0.09
PC:18d4e     Total:412726      MisBP:27719   MisRate:6.72%    MPKI:0.09
PC:1720c     Total:321212      MisBP:29335   MisRate:9.13%    MPKI:0.09
PC:1feb0     Total:225892      MisBP:29460   MisRate:13.04%    MPKI:0.10
PC:187c6     Total:232893      MisBP:31268   MisRate:13.43%    MPKI:0.10
PC:1fede     Total:226627      MisBP:31543   MisRate:13.92%    MPKI:0.10
PC:1cb02     Total:504668      MisBP:31952   MisRate:6.33%    MPKI:0.10
PC:17110     Total:1296681      MisBP:32627   MisRate:2.52%    MPKI:0.11
PC:1235e     Total:235723      MisBP:33106   MisRate:14.04%    MPKI:0.11
PC:16508     Total:210601      MisBP:34039   MisRate:16.16%    MPKI:0.11
PC:16f6a     Total:202256      MisBP:36186   MisRate:17.89%    MPKI:0.12
PC:187f2     Total:370550      MisBP:39798   MisRate:10.74%    MPKI:0.13
PC:18e26     Total:568707      MisBP:40976   MisRate:7.21%    MPKI:0.13
PC:18d18     Total:1196764      MisBP:42165   MisRate:3.52%    MPKI:0.14
PC:18804     Total:351089      MisBP:44592   MisRate:12.70%    MPKI:0.14
PC:18d3e     Total:601310      MisBP:44798   MisRate:7.45%    MPKI:0.14
PC:187d8     Total:289712      MisBP:46176   MisRate:15.94%    MPKI:0.15
PC:17146     Total:213613      MisBP:46648   MisRate:21.84%    MPKI:0.15
PC:1fec8     Total:403024      MisBP:48381   MisRate:12.00%    MPKI:0.16
PC:1d1a8     Total:279147      MisBP:48872   MisRate:17.51%    MPKI:0.16
PC:172de     Total:402438      MisBP:50722   MisRate:12.60%    MPKI:0.16
PC:1ca5a     Total:498018      MisBP:52018   MisRate:10.45%    MPKI:0.17
PC:1feda     Total:548928      MisBP:55380   MisRate:10.09%    MPKI:0.18
PC:1ff4c     Total:428361      MisBP:57803   MisRate:13.49%    MPKI:0.19
PC:17226     Total:214171      MisBP:58553   MisRate:27.34%    MPKI:0.19
PC:12296     Total:474202      MisBP:59704   MisRate:12.59%    MPKI:0.19
PC:122fe     Total:403089      MisBP:59750   MisRate:14.82%    MPKI:0.19
PC:122a2     Total:1017451      MisBP:60288   MisRate:5.93%    MPKI:0.19
PC:189a6     Total:607105      MisBP:60392   MisRate:9.95%    MPKI:0.19
PC:1ff38     Total:309370      MisBP:61162   MisRate:19.77%    MPKI:0.20
PC:172fc     Total:319686      MisBP:61265   MisRate:19.16%    MPKI:0.20
PC:1d9c4     Total:3448696      MisBP:65904   MisRate:1.91%    MPKI:0.21
PC:18800     Total:372744      MisBP:67454   MisRate:18.10%    MPKI:0.22
PC:18e0a     Total:682284      MisBP:75953   MisRate:11.13%    MPKI:0.25
PC:18d38     Total:896738      MisBP:78803   MisRate:8.79%    MPKI:0.25
PC:22f70     Total:140803      MisBP:83544   MisRate:59.33%    MPKI:0.27
PC:189b8     Total:638168      MisBP:87513   MisRate:13.71%    MPKI:0.28
PC:18894     Total:788346      MisBP:87848   MisRate:11.14%    MPKI:0.28
PC:122b6     Total:869514      MisBP:89409   MisRate:10.28%    MPKI:0.29
PC:18e4e     Total:544436      MisBP:94456   MisRate:17.35%    MPKI:0.30
PC:188a6     Total:833503      MisBP:111613   MisRate:13.39%    MPKI:0.36
PC:1228a     Total:740495      MisBP:117820   MisRate:15.91%    MPKI:0.38
PC:189b4     Total:1048093      MisBP:131971   MisRate:12.59%    MPKI:0.43
PC:1712c     Total:1232607      MisBP:137523   MisRate:11.16%    MPKI:0.44
PC:18d20     Total:1197156      MisBP:137993   MisRate:11.53%    MPKI:0.45
PC:122b0     Total:1260637      MisBP:178410   MisRate:14.15%    MPKI:0.58
PC:187d4     Total:1329326      MisBP:208846   MisRate:15.71%    MPKI:0.67
PC:17136     Total:1460288      MisBP:218155   MisRate:14.94%    MPKI:0.70
PC:188a2     Total:2014755      MisBP:224222   MisRate:11.13%    MPKI:0.72
Totfetch:536772357  TotInsts:310000002  TotMis : inf%   MPKI : 17.55
=============finish sim!!!!!!=============
Done running SimPoint!
