Global frequency set at 1000000000000 ticks per second
 Register [printBranch()] ExitCallback !!!!!!! 
gem5 Simulator System.  https://www.gem5.org
gem5 is copyrighted software; use the --copyright option for details.

gem5 version 22.0.0.2
gem5 compiled Sep  7 2022 00:42:18
gem5 started Sep  7 2022 05:29:00
gem5 executing on a100, pid 2806302
command line: /data/zxf/gem5/gem5-prof/build/ARM/gem5.fast --outdir=/data/zxf/checkpoint/spec2006/401.bzip2/prof/bzip2_ckp_12 /data/zxf/gem5/gem5-prof/configs/example/se.py --cpu-type O3CPU --cpu-clock 1GHz --num-cpu 1 --l1d-hwp-type=BOPPrefetcher --caches --l2cache --l1i_size 32kB --l1d_size 32kB --l2_size 1MB --l1i_assoc 8 --l1d_assoc 8 --l2_assoc 16 --cacheline_size 64 --mem-type DDR3_2133_8x8 --mem-size 16GB --restore-simpoint-checkpoint -r 12 --checkpoint-dir /data/zxf/checkpoint/spec2006/401.bzip2/ckpt -c bzip2_base.gcc41-64bit -o 'input.source 280'

info: Standard input is not a terminal, disabling listeners.
Resuming from /data/zxf/checkpoint/spec2006/401.bzip2/ckpt/cpt.simpoint_11_inst_185390000000_weight_0.106398_interval_300000000_warmup_10000000
Resuming from SimPoint #11, start_inst:185390000000, weight:0.106398, interval:300000000, warmup:10000000
Switch at curTick count:10000
Switched CPUS @ tick 114314880848500
[(<m5.objects.ArmCPU.ArmAtomicSimpleCPU object at 0x7f9473bbfbb0>, <m5.objects.ArmCPU.ArmO3CPU object at 0x7f9473bd7e20>)]
switching cpus



+++++++++++++++++++++++++zxf print simpoint+++++++++++++++++++++++++++
Warmed up! Dumping and resetting stats!


=============start sim!!!!!!=============
PC:16264     Total:22340      MisBP:0   MisRate:0.00%    MPKI:0.00
PC:16280     Total:22209      MisBP:0   MisRate:0.00%    MPKI:0.00
PC:1627e     Total:22283      MisBP:0   MisRate:0.00%    MPKI:0.00
PC:1627c     Total:22285      MisBP:0   MisRate:0.00%    MPKI:0.00
PC:1627a     Total:22285      MisBP:0   MisRate:0.00%    MPKI:0.00
PC:16276     Total:22339      MisBP:0   MisRate:0.00%    MPKI:0.00
PC:16274     Total:22339      MisBP:0   MisRate:0.00%    MPKI:0.00
PC:16270     Total:22339      MisBP:0   MisRate:0.00%    MPKI:0.00
PC:1626e     Total:22339      MisBP:0   MisRate:0.00%    MPKI:0.00
PC:1626a     Total:22339      MisBP:0   MisRate:0.00%    MPKI:0.00
PC:16268     Total:22339      MisBP:0   MisRate:0.00%    MPKI:0.00
PC:16266     Total:22340      MisBP:0   MisRate:0.00%    MPKI:0.00
PC:16282     Total:22209      MisBP:0   MisRate:0.00%    MPKI:0.00
PC:16262     Total:22344      MisBP:0   MisRate:0.00%    MPKI:0.00
PC:16260     Total:22344      MisBP:0   MisRate:0.00%    MPKI:0.00
PC:1625c     Total:22344      MisBP:0   MisRate:0.00%    MPKI:0.00
PC:1625a     Total:22344      MisBP:0   MisRate:0.00%    MPKI:0.00
PC:16258     Total:22344      MisBP:0   MisRate:0.00%    MPKI:0.00
PC:16256     Total:22345      MisBP:0   MisRate:0.00%    MPKI:0.00
PC:16254     Total:22346      MisBP:0   MisRate:0.00%    MPKI:0.00
PC:16252     Total:22346      MisBP:0   MisRate:0.00%    MPKI:0.00
PC:16250     Total:22399      MisBP:0   MisRate:0.00%    MPKI:0.00
PC:1624e     Total:22399      MisBP:0   MisRate:0.00%    MPKI:0.00
PC:1624c     Total:22399      MisBP:0   MisRate:0.00%    MPKI:0.00
PC:1629c     Total:22251      MisBP:0   MisRate:0.00%    MPKI:0.00
PC:162b4     Total:22417      MisBP:0   MisRate:0.00%    MPKI:0.00
PC:162b2     Total:22417      MisBP:0   MisRate:0.00%    MPKI:0.00
PC:162b0     Total:22348      MisBP:0   MisRate:0.00%    MPKI:0.00
PC:162ac     Total:22348      MisBP:0   MisRate:0.00%    MPKI:0.00
PC:162aa     Total:22348      MisBP:0   MisRate:0.00%    MPKI:0.00
PC:162a8     Total:22351      MisBP:0   MisRate:0.00%    MPKI:0.00
PC:162a6     Total:22318      MisBP:0   MisRate:0.00%    MPKI:0.00
PC:162a4     Total:22318      MisBP:0   MisRate:0.00%    MPKI:0.00
PC:162a2     Total:22318      MisBP:0   MisRate:0.00%    MPKI:0.00
PC:162a0     Total:22318      MisBP:0   MisRate:0.00%    MPKI:0.00
PC:1629e     Total:22250      MisBP:0   MisRate:0.00%    MPKI:0.00
PC:16248     Total:22399      MisBP:0   MisRate:0.00%    MPKI:0.00
PC:1629a     Total:22246      MisBP:0   MisRate:0.00%    MPKI:0.00
PC:16296     Total:22247      MisBP:0   MisRate:0.00%    MPKI:0.00
PC:16294     Total:22247      MisBP:0   MisRate:0.00%    MPKI:0.00
PC:16292     Total:22247      MisBP:0   MisRate:0.00%    MPKI:0.00
PC:16290     Total:22215      MisBP:0   MisRate:0.00%    MPKI:0.00
PC:1628e     Total:22218      MisBP:0   MisRate:0.00%    MPKI:0.00
PC:1628c     Total:22218      MisBP:0   MisRate:0.00%    MPKI:0.00
PC:1628a     Total:22209      MisBP:0   MisRate:0.00%    MPKI:0.00
PC:16288     Total:22209      MisBP:0   MisRate:0.00%    MPKI:0.00
PC:16284     Total:22209      MisBP:0   MisRate:0.00%    MPKI:0.00
PC:111c2     Total:53      MisBP:0   MisRate:0.00%    MPKI:0.00
PC:111d4     Total:39      MisBP:0   MisRate:0.00%    MPKI:0.00
PC:16214     Total:22218      MisBP:0   MisRate:0.00%    MPKI:0.00
PC:111d2     Total:40      MisBP:0   MisRate:0.00%    MPKI:0.00
PC:16212     Total:22218      MisBP:0   MisRate:0.00%    MPKI:0.00
PC:111d0     Total:40      MisBP:0   MisRate:0.00%    MPKI:0.00
PC:1620e     Total:22222      MisBP:0   MisRate:0.00%    MPKI:0.00
PC:1620a     Total:22226      MisBP:0   MisRate:0.00%    MPKI:0.00
PC:111c8     Total:53      MisBP:0   MisRate:0.00%    MPKI:0.00
PC:16208     Total:22227      MisBP:0   MisRate:0.00%    MPKI:0.00
PC:111c6     Total:53      MisBP:0   MisRate:0.00%    MPKI:0.00
PC:16204     Total:22232      MisBP:0   MisRate:0.00%    MPKI:0.00
PC:16216     Total:22218      MisBP:0   MisRate:0.00%    MPKI:0.00
PC:16200     Total:22232      MisBP:0   MisRate:0.00%    MPKI:0.00
PC:111be     Total:53      MisBP:0   MisRate:0.00%    MPKI:0.00
PC:161fc     Total:22291      MisBP:0   MisRate:0.00%    MPKI:0.00
PC:161fa     Total:22292      MisBP:0   MisRate:0.00%    MPKI:0.00
PC:111b8     Total:60      MisBP:0   MisRate:0.00%    MPKI:0.00
PC:161f8     Total:22261      MisBP:0   MisRate:0.00%    MPKI:0.00
PC:161f6     Total:22265      MisBP:0   MisRate:0.00%    MPKI:0.00
PC:111b4     Total:60      MisBP:0   MisRate:0.00%    MPKI:0.00
PC:161f4     Total:22265      MisBP:0   MisRate:0.00%    MPKI:0.00
PC:161f2     Total:22265      MisBP:0   MisRate:0.00%    MPKI:0.00
PC:111b0     Total:60      MisBP:0   MisRate:0.00%    MPKI:0.00
PC:1622c     Total:22323      MisBP:0   MisRate:0.00%    MPKI:0.00
PC:16246     Total:22399      MisBP:0   MisRate:0.00%    MPKI:0.00
PC:16244     Total:22399      MisBP:0   MisRate:0.00%    MPKI:0.00
PC:16242     Total:22332      MisBP:0   MisRate:0.00%    MPKI:0.00
PC:16240     Total:22332      MisBP:0   MisRate:0.00%    MPKI:0.00
PC:1623e     Total:22360      MisBP:0   MisRate:0.00%    MPKI:0.00
PC:1623c     Total:22361      MisBP:0   MisRate:0.00%    MPKI:0.00
PC:1623a     Total:22304      MisBP:0   MisRate:0.00%    MPKI:0.00
PC:16238     Total:22304      MisBP:0   MisRate:0.00%    MPKI:0.00
PC:16236     Total:22309      MisBP:0   MisRate:0.00%    MPKI:0.00
PC:16232     Total:22322      MisBP:0   MisRate:0.00%    MPKI:0.00
PC:111f0     Total:33      MisBP:0   MisRate:0.00%    MPKI:0.00
PC:162b6     Total:22414      MisBP:0   MisRate:0.00%    MPKI:0.00
PC:111ea     Total:6      MisBP:0   MisRate:0.00%    MPKI:0.00
PC:1622a     Total:22324      MisBP:0   MisRate:0.00%    MPKI:0.00
PC:16228     Total:22326      MisBP:0   MisRate:0.00%    MPKI:0.00
PC:111e6     Total:7      MisBP:0   MisRate:0.00%    MPKI:0.00
PC:16226     Total:22326      MisBP:0   MisRate:0.00%    MPKI:0.00
PC:111e4     Total:7      MisBP:0   MisRate:0.00%    MPKI:0.00
PC:16224     Total:22326      MisBP:0   MisRate:0.00%    MPKI:0.00
PC:16220     Total:22233      MisBP:0   MisRate:0.00%    MPKI:0.00
PC:1621a     Total:22213      MisBP:0   MisRate:0.00%    MPKI:0.00
PC:111d8     Total:39      MisBP:0   MisRate:0.00%    MPKI:0.00
PC:1634a     Total:22218      MisBP:0   MisRate:0.00%    MPKI:0.00
PC:16366     Total:22268      MisBP:0   MisRate:0.00%    MPKI:0.00
PC:16364     Total:22268      MisBP:0   MisRate:0.00%    MPKI:0.00
PC:16362     Total:22268      MisBP:0   MisRate:0.00%    MPKI:0.00
PC:1635e     Total:22253      MisBP:0   MisRate:0.00%    MPKI:0.00
PC:1635c     Total:22253      MisBP:0   MisRate:0.00%    MPKI:0.00
PC:16358     Total:22253      MisBP:0   MisRate:0.00%    MPKI:0.00
PC:16354     Total:22253      MisBP:0   MisRate:0.00%    MPKI:0.00
PC:16352     Total:22253      MisBP:0   MisRate:0.00%    MPKI:0.00
PC:16350     Total:22260      MisBP:0   MisRate:0.00%    MPKI:0.00
PC:1634e     Total:22218      MisBP:0   MisRate:0.00%    MPKI:0.00
PC:1634c     Total:22218      MisBP:0   MisRate:0.00%    MPKI:0.00
PC:1636a     Total:22180      MisBP:0   MisRate:0.00%    MPKI:0.00
PC:16348     Total:22218      MisBP:0   MisRate:0.00%    MPKI:0.00
PC:16346     Total:22218      MisBP:0   MisRate:0.00%    MPKI:0.00
PC:16344     Total:22186      MisBP:0   MisRate:0.00%    MPKI:0.00
PC:16340     Total:22186      MisBP:0   MisRate:0.00%    MPKI:0.00
PC:1633e     Total:22221      MisBP:0   MisRate:0.00%    MPKI:0.00
PC:1633c     Total:22221      MisBP:0   MisRate:0.00%    MPKI:0.00
PC:16338     Total:22221      MisBP:0   MisRate:0.00%    MPKI:0.00
PC:16334     Total:22221      MisBP:0   MisRate:0.00%    MPKI:0.00
PC:16332     Total:22223      MisBP:0   MisRate:0.00%    MPKI:0.00
PC:1632e     Total:22223      MisBP:0   MisRate:0.00%    MPKI:0.00
PC:1632c     Total:22223      MisBP:0   MisRate:0.00%    MPKI:0.00
PC:1637e     Total:22217      MisBP:0   MisRate:0.00%    MPKI:0.00
PC:18b4c     Total:30      MisBP:0   MisRate:0.00%    MPKI:0.00
PC:1638e     Total:22238      MisBP:0   MisRate:0.00%    MPKI:0.00
PC:18b4a     Total:30      MisBP:0   MisRate:0.00%    MPKI:0.00
PC:1638c     Total:22238      MisBP:0   MisRate:0.00%    MPKI:0.00
PC:18b46     Total:30      MisBP:0   MisRate:0.00%    MPKI:0.00
PC:16388     Total:22170      MisBP:0   MisRate:0.00%    MPKI:0.00
PC:16384     Total:22170      MisBP:0   MisRate:0.00%    MPKI:0.00
PC:18b40     Total:30      MisBP:0   MisRate:0.00%    MPKI:0.00
PC:16382     Total:22170      MisBP:0   MisRate:0.00%    MPKI:0.00
PC:18b3e     Total:38      MisBP:0   MisRate:0.00%    MPKI:0.00
PC:16380     Total:22170      MisBP:0   MisRate:0.00%    MPKI:0.00
PC:1632a     Total:22308      MisBP:0   MisRate:0.00%    MPKI:0.00
PC:18b3a     Total:38      MisBP:0   MisRate:0.00%    MPKI:0.00
PC:1637c     Total:22179      MisBP:0   MisRate:0.00%    MPKI:0.00
PC:18b36     Total:38      MisBP:0   MisRate:0.00%    MPKI:0.00
PC:16378     Total:22179      MisBP:0   MisRate:0.00%    MPKI:0.00
PC:18b32     Total:41      MisBP:0   MisRate:0.00%    MPKI:0.00
PC:16374     Total:22179      MisBP:0   MisRate:0.00%    MPKI:0.00
PC:16370     Total:22179      MisBP:0   MisRate:0.00%    MPKI:0.00
PC:18b2c     Total:41      MisBP:0   MisRate:0.00%    MPKI:0.00
PC:1636e     Total:22179      MisBP:0   MisRate:0.00%    MPKI:0.00
PC:18b28     Total:410      MisBP:0   MisRate:0.00%    MPKI:0.00
PC:162d2     Total:22323      MisBP:0   MisRate:0.00%    MPKI:0.00
PC:162ea     Total:22425      MisBP:0   MisRate:0.00%    MPKI:0.00
PC:162e8     Total:22391      MisBP:0   MisRate:0.00%    MPKI:0.00
PC:162e6     Total:22392      MisBP:0   MisRate:0.00%    MPKI:0.00
PC:162e4     Total:22389      MisBP:0   MisRate:0.00%    MPKI:0.00
PC:162e2     Total:22389      MisBP:0   MisRate:0.00%    MPKI:0.00
PC:162e0     Total:22383      MisBP:0   MisRate:0.00%    MPKI:0.00
PC:162de     Total:22383      MisBP:0   MisRate:0.00%    MPKI:0.00
PC:162da     Total:22351      MisBP:0   MisRate:0.00%    MPKI:0.00
PC:162d8     Total:22351      MisBP:0   MisRate:0.00%    MPKI:0.00
PC:162d6     Total:22351      MisBP:0   MisRate:0.00%    MPKI:0.00
PC:162d4     Total:22351      MisBP:0   MisRate:0.00%    MPKI:0.00
PC:162ec     Total:22425      MisBP:0   MisRate:0.00%    MPKI:0.00
PC:162ce     Total:22323      MisBP:0   MisRate:0.00%    MPKI:0.00
PC:162cc     Total:22323      MisBP:0   MisRate:0.00%    MPKI:0.00
PC:162ca     Total:22323      MisBP:0   MisRate:0.00%    MPKI:0.00
PC:162c8     Total:22316      MisBP:0   MisRate:0.00%    MPKI:0.00
PC:162c6     Total:22316      MisBP:0   MisRate:0.00%    MPKI:0.00
PC:162c4     Total:22316      MisBP:0   MisRate:0.00%    MPKI:0.00
PC:162c0     Total:22316      MisBP:0   MisRate:0.00%    MPKI:0.00
PC:162be     Total:22445      MisBP:0   MisRate:0.00%    MPKI:0.00
PC:162bc     Total:22445      MisBP:0   MisRate:0.00%    MPKI:0.00
PC:162ba     Total:22414      MisBP:0   MisRate:0.00%    MPKI:0.00
PC:16308     Total:22309      MisBP:0   MisRate:0.00%    MPKI:0.00
PC:16328     Total:22306      MisBP:0   MisRate:0.00%    MPKI:0.00
PC:16326     Total:22274      MisBP:0   MisRate:0.00%    MPKI:0.00
PC:16324     Total:22275      MisBP:0   MisRate:0.00%    MPKI:0.00
PC:16322     Total:22283      MisBP:0   MisRate:0.00%    MPKI:0.00
PC:1631e     Total:22276      MisBP:0   MisRate:0.00%    MPKI:0.00
PC:1631c     Total:22276      MisBP:0   MisRate:0.00%    MPKI:0.00
PC:1631a     Total:22279      MisBP:0   MisRate:0.00%    MPKI:0.00
PC:16316     Total:22296      MisBP:0   MisRate:0.00%    MPKI:0.00
PC:16312     Total:22297      MisBP:0   MisRate:0.00%    MPKI:0.00
PC:16310     Total:22301      MisBP:0   MisRate:0.00%    MPKI:0.00
PC:1630c     Total:22301      MisBP:0   MisRate:0.00%    MPKI:0.00
PC:161f0     Total:22274      MisBP:0   MisRate:0.00%    MPKI:0.00
PC:16306     Total:22309      MisBP:0   MisRate:0.00%    MPKI:0.00
PC:16304     Total:22309      MisBP:0   MisRate:0.00%    MPKI:0.00
PC:16300     Total:22310      MisBP:0   MisRate:0.00%    MPKI:0.00
PC:162fe     Total:22375      MisBP:0   MisRate:0.00%    MPKI:0.00
PC:162fc     Total:22375      MisBP:0   MisRate:0.00%    MPKI:0.00
PC:162fa     Total:22422      MisBP:0   MisRate:0.00%    MPKI:0.00
PC:162f8     Total:22424      MisBP:0   MisRate:0.00%    MPKI:0.00
PC:162f4     Total:22424      MisBP:0   MisRate:0.00%    MPKI:0.00
PC:162f2     Total:22424      MisBP:0   MisRate:0.00%    MPKI:0.00
PC:162ee     Total:22424      MisBP:0   MisRate:0.00%    MPKI:0.00
PC:160ba     Total:22309      MisBP:0   MisRate:0.00%    MPKI:0.00
PC:160d4     Total:22269      MisBP:0   MisRate:0.00%    MPKI:0.00
PC:160d2     Total:22271      MisBP:0   MisRate:0.00%    MPKI:0.00
PC:160d0     Total:22276      MisBP:0   MisRate:0.00%    MPKI:0.00
PC:160ce     Total:22243      MisBP:0   MisRate:0.00%    MPKI:0.00
PC:160cc     Total:22237      MisBP:0   MisRate:0.00%    MPKI:0.00
PC:160ca     Total:22237      MisBP:0   MisRate:0.00%    MPKI:0.00
PC:160c6     Total:22237      MisBP:0   MisRate:0.00%    MPKI:0.00
PC:160c4     Total:22237      MisBP:0   MisRate:0.00%    MPKI:0.00
PC:160c2     Total:22237      MisBP:0   MisRate:0.00%    MPKI:0.00
PC:160c0     Total:22204      MisBP:0   MisRate:0.00%    MPKI:0.00
PC:160bc     Total:22309      MisBP:0   MisRate:0.00%    MPKI:0.00
PC:160d8     Total:22269      MisBP:0   MisRate:0.00%    MPKI:0.00
PC:160b8     Total:22309      MisBP:0   MisRate:0.00%    MPKI:0.00
PC:160b6     Total:22272      MisBP:0   MisRate:0.00%    MPKI:0.00
PC:160b2     Total:22272      MisBP:0   MisRate:0.00%    MPKI:0.00
PC:160b0     Total:22272      MisBP:0   MisRate:0.00%    MPKI:0.00
PC:160ae     Total:22272      MisBP:0   MisRate:0.00%    MPKI:0.00
PC:160ac     Total:22240      MisBP:0   MisRate:0.00%    MPKI:0.00
PC:160aa     Total:22240      MisBP:0   MisRate:0.00%    MPKI:0.00
PC:160a8     Total:22240      MisBP:0   MisRate:0.00%    MPKI:0.00
PC:160a6     Total:22240      MisBP:0   MisRate:0.00%    MPKI:0.00
PC:160a4     Total:22277      MisBP:0   MisRate:0.00%    MPKI:0.00
PC:160a2     Total:22277      MisBP:0   MisRate:0.00%    MPKI:0.00
PC:160f0     Total:22388      MisBP:0   MisRate:0.00%    MPKI:0.00
PC:1610c     Total:22310      MisBP:0   MisRate:0.00%    MPKI:0.00
PC:1610a     Total:22321      MisBP:0   MisRate:0.00%    MPKI:0.00
PC:16106     Total:22321      MisBP:0   MisRate:0.00%    MPKI:0.00
PC:16104     Total:22328      MisBP:0   MisRate:0.00%    MPKI:0.00
PC:16102     Total:22331      MisBP:0   MisRate:0.00%    MPKI:0.00
PC:16100     Total:22332      MisBP:0   MisRate:0.00%    MPKI:0.00
PC:160fe     Total:22385      MisBP:0   MisRate:0.00%    MPKI:0.00
PC:160fa     Total:22385      MisBP:0   MisRate:0.00%    MPKI:0.00
PC:160f8     Total:22385      MisBP:0   MisRate:0.00%    MPKI:0.00
PC:160f4     Total:22387      MisBP:0   MisRate:0.00%    MPKI:0.00
PC:160f2     Total:22388      MisBP:0   MisRate:0.00%    MPKI:0.00
PC:11060     Total:712      MisBP:0   MisRate:0.00%    MPKI:0.00
PC:160ee     Total:22324      MisBP:0   MisRate:0.00%    MPKI:0.00
PC:160ec     Total:22324      MisBP:0   MisRate:0.00%    MPKI:0.00
PC:160ea     Total:22320      MisBP:0   MisRate:0.00%    MPKI:0.00
PC:160e8     Total:22320      MisBP:0   MisRate:0.00%    MPKI:0.00
PC:160e6     Total:22288      MisBP:0   MisRate:0.00%    MPKI:0.00
PC:160e4     Total:22320      MisBP:0   MisRate:0.00%    MPKI:0.00
PC:160e2     Total:22269      MisBP:0   MisRate:0.00%    MPKI:0.00
PC:160de     Total:22269      MisBP:0   MisRate:0.00%    MPKI:0.00
PC:160dc     Total:22269      MisBP:0   MisRate:0.00%    MPKI:0.00
PC:160da     Total:22269      MisBP:0   MisRate:0.00%    MPKI:0.00
PC:16072     Total:22376      MisBP:0   MisRate:0.00%    MPKI:0.00
PC:11040     Total:173      MisBP:0   MisRate:0.00%    MPKI:0.00
PC:16080     Total:22227      MisBP:0   MisRate:0.00%    MPKI:0.00
PC:1103e     Total:173      MisBP:0   MisRate:0.00%    MPKI:0.00
PC:1607e     Total:22282      MisBP:0   MisRate:0.00%    MPKI:0.00
PC:1103c     Total:173      MisBP:0   MisRate:0.00%    MPKI:0.00
PC:1607c     Total:22313      MisBP:0   MisRate:0.00%    MPKI:0.00
PC:1103a     Total:173      MisBP:0   MisRate:0.00%    MPKI:0.00
PC:16078     Total:22316      MisBP:0   MisRate:0.00%    MPKI:0.00
PC:11036     Total:173      MisBP:0   MisRate:0.00%    MPKI:0.00
PC:16076     Total:22318      MisBP:0   MisRate:0.00%    MPKI:0.00
PC:11034     Total:173      MisBP:0   MisRate:0.00%    MPKI:0.00
PC:16082     Total:22227      MisBP:0   MisRate:0.00%    MPKI:0.00
PC:11030     Total:173      MisBP:0   MisRate:0.00%    MPKI:0.00
PC:16070     Total:22376      MisBP:0   MisRate:0.00%    MPKI:0.00
PC:1606e     Total:22376      MisBP:0   MisRate:0.00%    MPKI:0.00
PC:1102c     Total:173      MisBP:0   MisRate:0.00%    MPKI:0.00
PC:1606c     Total:22377      MisBP:0   MisRate:0.00%    MPKI:0.00
PC:1606a     Total:22389      MisBP:0   MisRate:0.00%    MPKI:0.00
PC:11028     Total:173      MisBP:0   MisRate:0.00%    MPKI:0.00
PC:16068     Total:22390      MisBP:0   MisRate:0.00%    MPKI:0.00
PC:11026     Total:173      MisBP:0   MisRate:0.00%    MPKI:0.00
PC:16066     Total:22390      MisBP:0   MisRate:0.00%    MPKI:0.00
PC:11024     Total:173      MisBP:0   MisRate:0.00%    MPKI:0.00
PC:16090     Total:22258      MisBP:0   MisRate:0.00%    MPKI:0.00
PC:160a0     Total:22244      MisBP:0   MisRate:0.00%    MPKI:0.00
PC:1105e     Total:174      MisBP:0   MisRate:0.00%    MPKI:0.00
PC:1609c     Total:22244      MisBP:0   MisRate:0.00%    MPKI:0.00
PC:1105a     Total:3      MisBP:0   MisRate:0.00%    MPKI:0.00
PC:1609a     Total:22244      MisBP:0   MisRate:0.00%    MPKI:0.00
PC:16098     Total:22244      MisBP:0   MisRate:0.00%    MPKI:0.00
PC:11056     Total:3      MisBP:0   MisRate:0.00%    MPKI:0.00
PC:16096     Total:22212      MisBP:0   MisRate:0.00%    MPKI:0.00
PC:11054     Total:3      MisBP:0   MisRate:0.00%    MPKI:0.00
PC:16092     Total:22212      MisBP:0   MisRate:0.00%    MPKI:0.00
PC:11050     Total:3      MisBP:0   MisRate:0.00%    MPKI:0.00
PC:1610e     Total:22308      MisBP:0   MisRate:0.00%    MPKI:0.00
PC:1608e     Total:22226      MisBP:0   MisRate:0.00%    MPKI:0.00
PC:1104c     Total:173      MisBP:0   MisRate:0.00%    MPKI:0.00
PC:1608c     Total:22226      MisBP:0   MisRate:0.00%    MPKI:0.00
PC:1104a     Total:173      MisBP:0   MisRate:0.00%    MPKI:0.00
PC:1608a     Total:22227      MisBP:0   MisRate:0.00%    MPKI:0.00
PC:11048     Total:173      MisBP:0   MisRate:0.00%    MPKI:0.00
PC:16086     Total:22227      MisBP:0   MisRate:0.00%    MPKI:0.00
PC:11044     Total:173      MisBP:0   MisRate:0.00%    MPKI:0.00
PC:16084     Total:22227      MisBP:0   MisRate:0.00%    MPKI:0.00
PC:11042     Total:173      MisBP:0   MisRate:0.00%    MPKI:0.00
PC:1619e     Total:22237      MisBP:0   MisRate:0.00%    MPKI:0.00
PC:161b8     Total:22205      MisBP:0   MisRate:0.00%    MPKI:0.00
PC:161b4     Total:22232      MisBP:0   MisRate:0.00%    MPKI:0.00
PC:161b2     Total:22232      MisBP:0   MisRate:0.00%    MPKI:0.00
PC:161b0     Total:22232      MisBP:0   MisRate:0.00%    MPKI:0.00
PC:161ae     Total:22200      MisBP:0   MisRate:0.00%    MPKI:0.00
PC:161ac     Total:22200      MisBP:0   MisRate:0.00%    MPKI:0.00
PC:161aa     Total:22200      MisBP:0   MisRate:0.00%    MPKI:0.00
PC:161a8     Total:22200      MisBP:0   MisRate:0.00%    MPKI:0.00
PC:161a6     Total:22233      MisBP:0   MisRate:0.00%    MPKI:0.00
PC:161a4     Total:22237      MisBP:0   MisRate:0.00%    MPKI:0.00
PC:161a0     Total:22237      MisBP:0   MisRate:0.00%    MPKI:0.00
PC:161bc     Total:22205      MisBP:0   MisRate:0.00%    MPKI:0.00
PC:1619c     Total:22237      MisBP:0   MisRate:0.00%    MPKI:0.00
PC:1619a     Total:22237      MisBP:0   MisRate:0.00%    MPKI:0.00
PC:16196     Total:22267      MisBP:0   MisRate:0.00%    MPKI:0.00
PC:16194     Total:22267      MisBP:0   MisRate:0.00%    MPKI:0.00
PC:16192     Total:22275      MisBP:0   MisRate:0.00%    MPKI:0.00
PC:1618e     Total:22242      MisBP:0   MisRate:0.00%    MPKI:0.00
PC:1618a     Total:22242      MisBP:0   MisRate:0.00%    MPKI:0.00
PC:16188     Total:22242      MisBP:0   MisRate:0.00%    MPKI:0.00
PC:16186     Total:22241      MisBP:0   MisRate:0.00%    MPKI:0.00
PC:16184     Total:22241      MisBP:0   MisRate:0.00%    MPKI:0.00
PC:16182     Total:22209      MisBP:0   MisRate:0.00%    MPKI:0.00
PC:161d4     Total:22216      MisBP:0   MisRate:0.00%    MPKI:0.00
PC:111ae     Total:60      MisBP:0   MisRate:0.00%    MPKI:0.00
PC:161ee     Total:22274      MisBP:0   MisRate:0.00%    MPKI:0.00
PC:111ac     Total:60      MisBP:0   MisRate:0.00%    MPKI:0.00
PC:161ea     Total:22237      MisBP:0   MisRate:0.00%    MPKI:0.00
PC:111a8     Total:61      MisBP:0   MisRate:0.00%    MPKI:0.00
PC:161e8     Total:22203      MisBP:0   MisRate:0.00%    MPKI:0.00
PC:111a6     Total:61      MisBP:0   MisRate:0.00%    MPKI:0.00
PC:161e6     Total:22206      MisBP:0   MisRate:0.00%    MPKI:0.00
PC:111a4     Total:61      MisBP:0   MisRate:0.00%    MPKI:0.00
PC:161dc     Total:22208      MisBP:0   MisRate:0.00%    MPKI:0.00
PC:161d8     Total:22213      MisBP:0   MisRate:0.00%    MPKI:0.00
PC:1617e     Total:22209      MisBP:0   MisRate:0.00%    MPKI:0.00
PC:161d2     Total:22197      MisBP:0   MisRate:0.00%    MPKI:0.00
PC:11190     Total:427      MisBP:0   MisRate:0.00%    MPKI:0.00
PC:161d0     Total:22205      MisBP:0   MisRate:0.00%    MPKI:0.00
PC:161ce     Total:22205      MisBP:0   MisRate:0.00%    MPKI:0.00
PC:161cc     Total:22207      MisBP:0   MisRate:0.00%    MPKI:0.00
PC:161ca     Total:22207      MisBP:0   MisRate:0.00%    MPKI:0.00
PC:161c8     Total:22175      MisBP:0   MisRate:0.00%    MPKI:0.00
PC:161c4     Total:22175      MisBP:0   MisRate:0.00%    MPKI:0.00
PC:161c0     Total:22175      MisBP:0   MisRate:0.00%    MPKI:0.00
PC:161be     Total:22236      MisBP:0   MisRate:0.00%    MPKI:0.00
PC:1612a     Total:22276      MisBP:0   MisRate:0.00%    MPKI:0.00
PC:16144     Total:22228      MisBP:0   MisRate:0.00%    MPKI:0.00
PC:16142     Total:22216      MisBP:0   MisRate:0.00%    MPKI:0.00
PC:1613e     Total:22216      MisBP:0   MisRate:0.00%    MPKI:0.00
PC:1613a     Total:22286      MisBP:0   MisRate:0.00%    MPKI:0.00
PC:111bc     Total:60      MisBP:0   MisRate:0.00%    MPKI:0.00
PC:16138     Total:22286      MisBP:0   MisRate:0.00%    MPKI:0.00
PC:16134     Total:22286      MisBP:0   MisRate:0.00%    MPKI:0.00
PC:16132     Total:22286      MisBP:0   MisRate:0.00%    MPKI:0.00
PC:16130     Total:22286      MisBP:0   MisRate:0.00%    MPKI:0.00
PC:1612e     Total:22278      MisBP:0   MisRate:0.00%    MPKI:0.00
PC:1612c     Total:22275      MisBP:0   MisRate:0.00%    MPKI:0.00
PC:16146     Total:22228      MisBP:0   MisRate:0.00%    MPKI:0.00
PC:16128     Total:22276      MisBP:0   MisRate:0.00%    MPKI:0.00
PC:16124     Total:22273      MisBP:0   MisRate:0.00%    MPKI:0.00
PC:16122     Total:22273      MisBP:0   MisRate:0.00%    MPKI:0.00
PC:16120     Total:22273      MisBP:0   MisRate:0.00%    MPKI:0.00
PC:111a0     Total:61      MisBP:0   MisRate:0.00%    MPKI:0.00
PC:1611c     Total:22273      MisBP:0   MisRate:0.00%    MPKI:0.00
PC:1119c     Total:61      MisBP:0   MisRate:0.00%    MPKI:0.00
PC:16118     Total:22290      MisBP:0   MisRate:0.00%    MPKI:0.00
PC:16116     Total:22305      MisBP:0   MisRate:0.00%    MPKI:0.00
PC:16112     Total:22308      MisBP:0   MisRate:0.00%    MPKI:0.00
PC:1615a     Total:22261      MisBP:0   MisRate:0.00%    MPKI:0.00
PC:1617a     Total:22270      MisBP:0   MisRate:0.00%    MPKI:0.00
PC:16178     Total:22302      MisBP:0   MisRate:0.00%    MPKI:0.00
PC:16174     Total:22302      MisBP:0   MisRate:0.00%    MPKI:0.00
PC:16170     Total:22302      MisBP:0   MisRate:0.00%    MPKI:0.00
PC:1616c     Total:22302      MisBP:0   MisRate:0.00%    MPKI:0.00
PC:16168     Total:22302      MisBP:0   MisRate:0.00%    MPKI:0.00
PC:16166     Total:22302      MisBP:0   MisRate:0.00%    MPKI:0.00
PC:16164     Total:22334      MisBP:0   MisRate:0.00%    MPKI:0.00
PC:16162     Total:22334      MisBP:0   MisRate:0.00%    MPKI:0.00
PC:16160     Total:22334      MisBP:0   MisRate:0.00%    MPKI:0.00
PC:1615e     Total:22261      MisBP:0   MisRate:0.00%    MPKI:0.00
PC:16390     Total:22238      MisBP:0   MisRate:0.00%    MPKI:0.00
PC:111da     Total:39      MisBP:0   MisRate:0.00%    MPKI:0.00
PC:16156     Total:22261      MisBP:0   MisRate:0.00%    MPKI:0.00
PC:16154     Total:22261      MisBP:0   MisRate:0.00%    MPKI:0.00
PC:16150     Total:22261      MisBP:0   MisRate:0.00%    MPKI:0.00
PC:1614e     Total:22261      MisBP:0   MisRate:0.00%    MPKI:0.00
PC:1614c     Total:22260      MisBP:0   MisRate:0.00%    MPKI:0.00
PC:111ce     Total:40      MisBP:0   MisRate:0.00%    MPKI:0.00
PC:1614a     Total:22260      MisBP:0   MisRate:0.00%    MPKI:0.00
PC:16148     Total:22260      MisBP:0   MisRate:0.00%    MPKI:0.00
PC:111ca     Total:53      MisBP:0   MisRate:0.00%    MPKI:0.00
PC:1dc26     Total:7      MisBP:0   MisRate:0.00%    MPKI:0.00
PC:18cb2     Total:5529      MisBP:0   MisRate:0.00%    MPKI:0.00
PC:164f4     Total:22359      MisBP:0   MisRate:0.00%    MPKI:0.00
PC:1dc2c     Total:6      MisBP:0   MisRate:0.00%    MPKI:0.00
PC:18bea     Total:41344      MisBP:0   MisRate:0.00%    MPKI:0.00
PC:18cb0     Total:5534      MisBP:0   MisRate:0.00%    MPKI:0.00
PC:164f2     Total:22361      MisBP:0   MisRate:0.00%    MPKI:0.00
PC:1dc2a     Total:3      MisBP:0   MisRate:0.00%    MPKI:0.00
PC:18cae     Total:5535      MisBP:0   MisRate:0.00%    MPKI:0.00
PC:164f0     Total:22361      MisBP:0   MisRate:0.00%    MPKI:0.00
PC:18cac     Total:5540      MisBP:0   MisRate:0.00%    MPKI:0.00
PC:164ee     Total:22361      MisBP:0   MisRate:0.00%    MPKI:0.00
PC:164f6     Total:22390      MisBP:0   MisRate:0.00%    MPKI:0.00
PC:164ec     Total:22361      MisBP:0   MisRate:0.00%    MPKI:0.00
PC:1dc24     Total:8      MisBP:0   MisRate:0.00%    MPKI:0.00
PC:18be2     Total:41389      MisBP:0   MisRate:0.00%    MPKI:0.00
PC:18ca8     Total:5540      MisBP:0   MisRate:0.00%    MPKI:0.00
PC:164ea     Total:22363      MisBP:0   MisRate:0.00%    MPKI:0.00
PC:1dc22     Total:8      MisBP:0   MisRate:0.00%    MPKI:0.00
PC:18be0     Total:41494      MisBP:0   MisRate:0.00%    MPKI:0.00
PC:164e8     Total:22363      MisBP:0   MisRate:0.00%    MPKI:0.00
PC:164e4     Total:22362      MisBP:0   MisRate:0.00%    MPKI:0.00
PC:1dc1c     Total:16      MisBP:0   MisRate:0.00%    MPKI:0.00
PC:18bda     Total:41836      MisBP:0   MisRate:0.00%    MPKI:0.00
PC:16500     Total:22342      MisBP:0   MisRate:0.00%    MPKI:0.00
PC:1650e     Total:22358      MisBP:0   MisRate:0.00%    MPKI:0.00
PC:18cca     Total:23405      MisBP:0   MisRate:0.00%    MPKI:0.00
PC:1650c     Total:22360      MisBP:0   MisRate:0.00%    MPKI:0.00
PC:18cc8     Total:23453      MisBP:0   MisRate:0.00%    MPKI:0.00
PC:1650a     Total:22369      MisBP:0   MisRate:0.00%    MPKI:0.00
PC:18cc6     Total:23514      MisBP:0   MisRate:0.00%    MPKI:0.00
PC:16508     Total:22373      MisBP:0   MisRate:0.00%    MPKI:0.00
PC:18cc2     Total:143      MisBP:0   MisRate:0.00%    MPKI:0.00
PC:16504     Total:22342      MisBP:0   MisRate:0.00%    MPKI:0.00
PC:16502     Total:22342      MisBP:0   MisRate:0.00%    MPKI:0.00
PC:18cbe     Total:143      MisBP:0   MisRate:0.00%    MPKI:0.00
PC:18ca0     Total:5610      MisBP:0   MisRate:0.00%    MPKI:0.00
PC:18cba     Total:147      MisBP:0   MisRate:0.00%    MPKI:0.00
PC:164fc     Total:22406      MisBP:0   MisRate:0.00%    MPKI:0.00
PC:164fa     Total:22408      MisBP:0   MisRate:0.00%    MPKI:0.00
PC:1dc32     Total:3      MisBP:0   MisRate:0.00%    MPKI:0.00
PC:18bf0     Total:5499      MisBP:0   MisRate:0.00%    MPKI:0.00
PC:18cb6     Total:147      MisBP:0   MisRate:0.00%    MPKI:0.00
PC:164f8     Total:22418      MisBP:0   MisRate:0.00%    MPKI:0.00
PC:1dc30     Total:3      MisBP:0   MisRate:0.00%    MPKI:0.00
PC:18bee     Total:5541      MisBP:0   MisRate:0.00%    MPKI:0.00
PC:18cb4     Total:146      MisBP:0   MisRate:0.00%    MPKI:0.00
PC:164ae     Total:22378      MisBP:0   MisRate:0.00%    MPKI:0.00
PC:164cc     Total:22426      MisBP:0   MisRate:0.00%    MPKI:0.00
PC:164ca     Total:22426      MisBP:0   MisRate:0.00%    MPKI:0.00
PC:164c8     Total:22427      MisBP:0   MisRate:0.00%    MPKI:0.00
PC:18c84     Total:23727      MisBP:0   MisRate:0.00%    MPKI:0.00
PC:164c6     Total:22339      MisBP:0   MisRate:0.00%    MPKI:0.00
PC:18c82     Total:23741      MisBP:0   MisRate:0.00%    MPKI:0.00
PC:164c4     Total:22339      MisBP:0   MisRate:0.00%    MPKI:0.00
PC:18c7a     Total:25284      MisBP:0   MisRate:0.00%    MPKI:0.00
PC:164bc     Total:22378      MisBP:0   MisRate:0.00%    MPKI:0.00
PC:164b0     Total:22378      MisBP:0   MisRate:0.00%    MPKI:0.00
PC:18c6c     Total:25545      MisBP:0   MisRate:0.00%    MPKI:0.00
PC:18c8a     Total:5649      MisBP:0   MisRate:0.00%    MPKI:0.00
PC:164ac     Total:22380      MisBP:0   MisRate:0.00%    MPKI:0.00
PC:18c66     Total:25549      MisBP:0   MisRate:0.00%    MPKI:0.00
PC:164a8     Total:22383      MisBP:0   MisRate:0.00%    MPKI:0.00
PC:18c64     Total:25551      MisBP:0   MisRate:0.00%    MPKI:0.00
PC:164a6     Total:22422      MisBP:0   MisRate:0.00%    MPKI:0.00
PC:164a2     Total:22422      MisBP:0   MisRate:0.00%    MPKI:0.00
PC:18c5e     Total:26339      MisBP:0   MisRate:0.00%    MPKI:0.00
PC:164a0     Total:22422      MisBP:0   MisRate:0.00%    MPKI:0.00
PC:18c5c     Total:26361      MisBP:0   MisRate:0.00%    MPKI:0.00
PC:1649e     Total:22420      MisBP:0   MisRate:0.00%    MPKI:0.00
PC:18c58     Total:22460      MisBP:0   MisRate:0.00%    MPKI:0.00
PC:164d8     Total:22370      MisBP:0   MisRate:0.00%    MPKI:0.00
PC:164e2     Total:22370      MisBP:0   MisRate:0.00%    MPKI:0.00
PC:164de     Total:22370      MisBP:0   MisRate:0.00%    MPKI:0.00
PC:1dc16     Total:8      MisBP:0   MisRate:0.00%    MPKI:0.00
PC:18bd4     Total:5230      MisBP:0   MisRate:0.00%    MPKI:0.00
PC:18c9a     Total:11316      MisBP:0   MisRate:0.00%    MPKI:0.00
PC:164dc     Total:22370      MisBP:0   MisRate:0.00%    MPKI:0.00
PC:1dc14     Total:8      MisBP:0   MisRate:0.00%    MPKI:0.00
PC:18bd2     Total:5283      MisBP:0   MisRate:0.00%    MPKI:0.00
PC:164da     Total:22370      MisBP:0   MisRate:0.00%    MPKI:0.00
PC:1dc12     Total:16      MisBP:0   MisRate:0.00%    MPKI:0.00
PC:18c96     Total:5660      MisBP:0   MisRate:0.00%    MPKI:0.00
PC:16510     Total:22358      MisBP:0   MisRate:0.00%    MPKI:0.00
PC:18c94     Total:5658      MisBP:0   MisRate:0.00%    MPKI:0.00
PC:164d6     Total:22370      MisBP:0   MisRate:0.00%    MPKI:0.00
PC:1dc0e     Total:8      MisBP:0   MisRate:0.00%    MPKI:0.00
PC:18bcc     Total:5377      MisBP:0   MisRate:0.00%    MPKI:0.00
PC:164d4     Total:22376      MisBP:0   MisRate:0.00%    MPKI:0.00
PC:1dc0c     Total:40      MisBP:0   MisRate:0.00%    MPKI:0.00
PC:18c90     Total:5674      MisBP:0   MisRate:0.00%    MPKI:0.00
PC:164d2     Total:22377      MisBP:0   MisRate:0.00%    MPKI:0.00
PC:18c8e     Total:5681      MisBP:0   MisRate:0.00%    MPKI:0.00
PC:164d0     Total:22426      MisBP:0   MisRate:0.00%    MPKI:0.00
PC:18d22     Total:6253      MisBP:0   MisRate:0.00%    MPKI:0.00
PC:18d2e     Total:6082      MisBP:0   MisRate:0.00%    MPKI:0.00
PC:16570     Total:1      MisBP:0   MisRate:0.00%    MPKI:0.00
PC:3973e     Total:13      MisBP:0   MisRate:0.00%    MPKI:0.00
PC:18d2a     Total:6184      MisBP:0   MisRate:0.00%    MPKI:0.00
PC:1656c     Total:1      MisBP:0   MisRate:0.00%    MPKI:0.00
PC:3973a     Total:14      MisBP:0   MisRate:0.00%    MPKI:0.00
PC:1656a     Total:1      MisBP:0   MisRate:0.00%    MPKI:0.00
PC:39738     Total:14      MisBP:0   MisRate:0.00%    MPKI:0.00
PC:18d26     Total:6219      MisBP:0   MisRate:0.00%    MPKI:0.00
PC:16568     Total:1      MisBP:0   MisRate:0.00%    MPKI:0.00
PC:39736     Total:14      MisBP:0   MisRate:0.00%    MPKI:0.00
PC:16572     Total:1      MisBP:0   MisRate:0.00%    MPKI:0.00
PC:16564     Total:1      MisBP:0   MisRate:0.00%    MPKI:0.00
PC:39732     Total:14      MisBP:0   MisRate:0.00%    MPKI:0.00
PC:16562     Total:1      MisBP:0   MisRate:0.00%    MPKI:0.00
PC:39730     Total:15      MisBP:0   MisRate:0.00%    MPKI:0.00
PC:1655e     Total:1      MisBP:0   MisRate:0.00%    MPKI:0.00
PC:3972c     Total:15      MisBP:0   MisRate:0.00%    MPKI:0.00
PC:18d18     Total:6295      MisBP:0   MisRate:0.00%    MPKI:0.00
PC:1655a     Total:1      MisBP:0   MisRate:0.00%    MPKI:0.00
PC:18d14     Total:6329      MisBP:0   MisRate:0.00%    MPKI:0.00
PC:16556     Total:1      MisBP:0   MisRate:0.00%    MPKI:0.00
PC:39724     Total:15      MisBP:0   MisRate:0.00%    MPKI:0.00
PC:15572     Total:21933      MisBP:0   MisRate:0.00%    MPKI:0.00
PC:1557c     Total:21935      MisBP:0   MisRate:0.00%    MPKI:0.00
PC:29684     Total:179      MisBP:0   MisRate:0.00%    MPKI:0.00
PC:1557a     Total:21935      MisBP:0   MisRate:0.00%    MPKI:0.00
PC:29368     Total:10      MisBP:0   MisRate:0.00%    MPKI:0.00
PC:15260     Total:8      MisBP:0   MisRate:0.00%    MPKI:0.00
PC:15578     Total:21935      MisBP:0   MisRate:0.00%    MPKI:0.00
PC:29680     Total:179      MisBP:0   MisRate:0.00%    MPKI:0.00
PC:29364     Total:10      MisBP:0   MisRate:0.00%    MPKI:0.00
PC:1525c     Total:8      MisBP:0   MisRate:0.00%    MPKI:0.00
PC:15574     Total:21933      MisBP:0   MisRate:0.00%    MPKI:0.00
PC:2967c     Total:180      MisBP:0   MisRate:0.00%    MPKI:0.00
PC:18d12     Total:6330      MisBP:0   MisRate:0.00%    MPKI:0.00
PC:154b4     Total:78      MisBP:0   MisRate:0.00%    MPKI:0.00
PC:295bc     Total:2424      MisBP:0   MisRate:0.00%    MPKI:0.00
PC:154ac     Total:7      MisBP:0   MisRate:0.00%    MPKI:0.00
PC:295b4     Total:2424      MisBP:0   MisRate:0.00%    MPKI:0.00
PC:1549e     Total:7      MisBP:0   MisRate:0.00%    MPKI:0.00
PC:1549a     Total:7      MisBP:0   MisRate:0.00%    MPKI:0.00
PC:15496     Total:21936      MisBP:0   MisRate:0.00%    MPKI:0.00
PC:15492     Total:21939      MisBP:0   MisRate:0.00%    MPKI:0.00
PC:1548e     Total:21939      MisBP:0   MisRate:0.00%    MPKI:0.00
PC:15486     Total:21939      MisBP:0   MisRate:0.00%    MPKI:0.00
PC:1651e     Total:22445      MisBP:0   MisRate:0.00%    MPKI:0.00
PC:18cee     Total:25145      MisBP:0   MisRate:0.00%    MPKI:0.00
PC:16530     Total:22409      MisBP:0   MisRate:0.00%    MPKI:0.00
PC:1652e     Total:22410      MisBP:0   MisRate:0.00%    MPKI:0.00
PC:1652a     Total:22410      MisBP:0   MisRate:0.00%    MPKI:0.00
PC:16526     Total:22410      MisBP:0   MisRate:0.00%    MPKI:0.00
PC:18ce2     Total:25308      MisBP:0   MisRate:0.00%    MPKI:0.00
PC:16524     Total:22410      MisBP:0   MisRate:0.00%    MPKI:0.00
PC:16522     Total:22410      MisBP:0   MisRate:0.00%    MPKI:0.00
PC:18cde     Total:25307      MisBP:0   MisRate:0.00%    MPKI:0.00
PC:16520     Total:22445      MisBP:0   MisRate:0.00%    MPKI:0.00
PC:18cdc     Total:25328      MisBP:0   MisRate:0.00%    MPKI:0.00
PC:39700     Total:15      MisBP:0   MisRate:0.00%    MPKI:0.00
PC:18cda     Total:25340      MisBP:0   MisRate:0.00%    MPKI:0.00
PC:1651c     Total:22379      MisBP:0   MisRate:0.00%    MPKI:0.00
PC:1651a     Total:22380      MisBP:0   MisRate:0.00%    MPKI:0.00
PC:16518     Total:22352      MisBP:0   MisRate:0.00%    MPKI:0.00
PC:18cd4     Total:25487      MisBP:0   MisRate:0.00%    MPKI:0.00
PC:16516     Total:22352      MisBP:0   MisRate:0.00%    MPKI:0.00
PC:18cd2     Total:25545      MisBP:0   MisRate:0.00%    MPKI:0.00
PC:16514     Total:22325      MisBP:0   MisRate:0.00%    MPKI:0.00
PC:16512     Total:22325      MisBP:0   MisRate:0.00%    MPKI:0.00
PC:18cce     Total:23366      MisBP:0   MisRate:0.00%    MPKI:0.00
PC:16540     Total:22278      MisBP:0   MisRate:0.00%    MPKI:0.00
PC:16554     Total:1      MisBP:0   MisRate:0.00%    MPKI:0.00
PC:39722     Total:15      MisBP:0   MisRate:0.00%    MPKI:0.00
PC:18d0e     Total:6332      MisBP:0   MisRate:0.00%    MPKI:0.00
PC:16550     Total:22275      MisBP:0   MisRate:0.00%    MPKI:0.00
PC:3971e     Total:15      MisBP:0   MisRate:0.00%    MPKI:0.00
PC:1654c     Total:22278      MisBP:0   MisRate:0.00%    MPKI:0.00
PC:3971a     Total:15      MisBP:0   MisRate:0.00%    MPKI:0.00
PC:16548     Total:22278      MisBP:0   MisRate:0.00%    MPKI:0.00
PC:39716     Total:15      MisBP:0   MisRate:0.00%    MPKI:0.00
PC:18d02     Total:6331      MisBP:0   MisRate:0.00%    MPKI:0.00
PC:16544     Total:22278      MisBP:0   MisRate:0.00%    MPKI:0.00
PC:1649a     Total:22361      MisBP:0   MisRate:0.00%    MPKI:0.00
PC:18cfa     Total:24348      MisBP:0   MisRate:0.00%    MPKI:0.00
PC:1653c     Total:22325      MisBP:0   MisRate:0.00%    MPKI:0.00
PC:3970a     Total:13      MisBP:0   MisRate:0.00%    MPKI:0.00
PC:18cf6     Total:24781      MisBP:0   MisRate:0.00%    MPKI:0.00
PC:16538     Total:22325      MisBP:0   MisRate:0.00%    MPKI:0.00
PC:39706     Total:13      MisBP:0   MisRate:0.00%    MPKI:0.00
PC:18cf4     Total:24901      MisBP:0   MisRate:0.00%    MPKI:0.00
PC:16536     Total:22409      MisBP:0   MisRate:0.00%    MPKI:0.00
PC:18cf0     Total:25087      MisBP:0   MisRate:0.00%    MPKI:0.00
PC:16532     Total:22409      MisBP:0   MisRate:0.00%    MPKI:0.00
PC:163e4     Total:22412      MisBP:0   MisRate:0.00%    MPKI:0.00
PC:18bac     Total:55      MisBP:0   MisRate:0.00%    MPKI:0.00
PC:1dbee     Total:1700      MisBP:0   MisRate:0.00%    MPKI:0.00
PC:163ee     Total:22617      MisBP:0   MisRate:0.00%    MPKI:0.00
PC:18baa     Total:56      MisBP:0   MisRate:0.00%    MPKI:0.00
PC:1dbec     Total:3404      MisBP:0   MisRate:0.00%    MPKI:0.00
PC:163ec     Total:22617      MisBP:0   MisRate:0.00%    MPKI:0.00
PC:163ea     Total:22579      MisBP:0   MisRate:0.00%    MPKI:0.00
PC:18ba6     Total:56      MisBP:0   MisRate:0.00%    MPKI:0.00
PC:163e8     Total:22579      MisBP:0   MisRate:0.00%    MPKI:0.00
PC:18ba4     Total:56      MisBP:0   MisRate:0.00%    MPKI:0.00
PC:163e6     Total:22412      MisBP:0   MisRate:0.00%    MPKI:0.00
PC:163f0     Total:22617      MisBP:0   MisRate:0.00%    MPKI:0.00
PC:18ba0     Total:56      MisBP:0   MisRate:0.00%    MPKI:0.00
PC:163e2     Total:22436      MisBP:0   MisRate:0.00%    MPKI:0.00
PC:163e0     Total:22397      MisBP:0   MisRate:0.00%    MPKI:0.00
PC:18b9a     Total:52      MisBP:0   MisRate:0.00%    MPKI:0.00
PC:163dc     Total:22397      MisBP:0   MisRate:0.00%    MPKI:0.00
PC:163da     Total:22397      MisBP:0   MisRate:0.00%    MPKI:0.00
PC:18b94     Total:52      MisBP:0   MisRate:0.00%    MPKI:0.00
PC:163d6     Total:22398      MisBP:0   MisRate:0.00%    MPKI:0.00
PC:18b92     Total:54      MisBP:0   MisRate:0.00%    MPKI:0.00
PC:163d4     Total:22398      MisBP:0   MisRate:0.00%    MPKI:0.00
PC:163d2     Total:22379      MisBP:0   MisRate:0.00%    MPKI:0.00
PC:1dbfa     Total:793      MisBP:0   MisRate:0.00%    MPKI:0.00
PC:16410     Total:22606      MisBP:0   MisRate:0.00%    MPKI:0.00
PC:1640e     Total:22606      MisBP:0   MisRate:0.00%    MPKI:0.00
PC:18bc8     Total:5410      MisBP:0   MisRate:0.00%    MPKI:0.00
PC:1640a     Total:22611      MisBP:0   MisRate:0.00%    MPKI:0.00
PC:18bc4     Total:10877      MisBP:0   MisRate:0.00%    MPKI:0.00
PC:16406     Total:22611      MisBP:0   MisRate:0.00%    MPKI:0.00
PC:16404     Total:22611      MisBP:0   MisRate:0.00%    MPKI:0.00
PC:16400     Total:22611      MisBP:0   MisRate:0.00%    MPKI:0.00
PC:18bbc     Total:5538      MisBP:0   MisRate:0.00%    MPKI:0.00
PC:163fe     Total:22745      MisBP:0   MisRate:0.00%    MPKI:0.00
PC:18bb8     Total:5531      MisBP:0   MisRate:0.00%    MPKI:0.00
PC:18b8e     Total:48      MisBP:0   MisRate:0.00%    MPKI:0.00
PC:163fa     Total:22708      MisBP:0   MisRate:0.00%    MPKI:0.00
PC:163f8     Total:22710      MisBP:0   MisRate:0.00%    MPKI:0.00
PC:18bb2     Total:5540      MisBP:0   MisRate:0.00%    MPKI:0.00
PC:1dbf4     Total:1589      MisBP:0   MisRate:0.00%    MPKI:0.00
PC:163f4     Total:22613      MisBP:0   MisRate:0.00%    MPKI:0.00
PC:18bb0     Total:5543      MisBP:0   MisRate:0.00%    MPKI:0.00
PC:1dbf2     Total:849      MisBP:0   MisRate:0.00%    MPKI:0.00
PC:163f2     Total:22617      MisBP:0   MisRate:0.00%    MPKI:0.00
PC:18bae     Total:55      MisBP:0   MisRate:0.00%    MPKI:0.00
PC:1dbf0     Total:849      MisBP:0   MisRate:0.00%    MPKI:0.00
PC:163a2     Total:22205      MisBP:0   MisRate:0.00%    MPKI:0.00
PC:18b6c     Total:43      MisBP:0   MisRate:0.00%    MPKI:0.00
PC:163ae     Total:22215      MisBP:0   MisRate:0.00%    MPKI:0.00
PC:18b6a     Total:43      MisBP:0   MisRate:0.00%    MPKI:0.00
PC:163ac     Total:22215      MisBP:0   MisRate:0.00%    MPKI:0.00
PC:18b68     Total:43      MisBP:0   MisRate:0.00%    MPKI:0.00
PC:163aa     Total:22245      MisBP:0   MisRate:0.00%    MPKI:0.00
PC:18b66     Total:43      MisBP:0   MisRate:0.00%    MPKI:0.00
PC:163a8     Total:22196      MisBP:0   MisRate:0.00%    MPKI:0.00
PC:163a6     Total:22203      MisBP:0   MisRate:0.00%    MPKI:0.00
PC:163a4     Total:22205      MisBP:0   MisRate:0.00%    MPKI:0.00
PC:18b60     Total:10118      MisBP:0   MisRate:0.00%    MPKI:0.00
PC:163b2     Total:22215      MisBP:0   MisRate:0.00%    MPKI:0.00
PC:18b5e     Total:5059      MisBP:0   MisRate:0.00%    MPKI:0.00
PC:163a0     Total:22205      MisBP:0   MisRate:0.00%    MPKI:0.00
PC:18b5c     Total:3818      MisBP:0   MisRate:0.00%    MPKI:0.00
PC:1639e     Total:22205      MisBP:0   MisRate:0.00%    MPKI:0.00
PC:1639a     Total:22205      MisBP:0   MisRate:0.00%    MPKI:0.00
PC:18b56     Total:4842      MisBP:0   MisRate:0.00%    MPKI:0.00
PC:16398     Total:22205      MisBP:0   MisRate:0.00%    MPKI:0.00
PC:16396     Total:22206      MisBP:0   MisRate:0.00%    MPKI:0.00
PC:18b52     Total:9686      MisBP:0   MisRate:0.00%    MPKI:0.00
PC:16394     Total:22238      MisBP:0   MisRate:0.00%    MPKI:0.00
PC:18b4e     Total:30      MisBP:0   MisRate:0.00%    MPKI:0.00
PC:163c4     Total:22293      MisBP:0   MisRate:0.00%    MPKI:0.00
PC:163d0     Total:22379      MisBP:0   MisRate:0.00%    MPKI:0.00
PC:18b8c     Total:48      MisBP:0   MisRate:0.00%    MPKI:0.00
PC:163ce     Total:22384      MisBP:0   MisRate:0.00%    MPKI:0.00
PC:163cc     Total:22320      MisBP:0   MisRate:0.00%    MPKI:0.00
PC:18b88     Total:48      MisBP:0   MisRate:0.00%    MPKI:0.00
PC:163ca     Total:22321      MisBP:0   MisRate:0.00%    MPKI:0.00
PC:18b86     Total:38      MisBP:0   MisRate:0.00%    MPKI:0.00
PC:163c8     Total:22321      MisBP:0   MisRate:0.00%    MPKI:0.00
PC:18b84     Total:38      MisBP:0   MisRate:0.00%    MPKI:0.00
PC:163c6     Total:22292      MisBP:0   MisRate:0.00%    MPKI:0.00
PC:18b82     Total:38      MisBP:0   MisRate:0.00%    MPKI:0.00
PC:16414     Total:22606      MisBP:0   MisRate:0.00%    MPKI:0.00
PC:18b80     Total:38      MisBP:0   MisRate:0.00%    MPKI:0.00
PC:163c2     Total:22247      MisBP:0   MisRate:0.00%    MPKI:0.00
PC:18b7c     Total:42      MisBP:0   MisRate:0.00%    MPKI:0.00
PC:163be     Total:22248      MisBP:0   MisRate:0.00%    MPKI:0.00
PC:163ba     Total:22314      MisBP:0   MisRate:0.00%    MPKI:0.00
PC:18b76     Total:42      MisBP:0   MisRate:0.00%    MPKI:0.00
PC:163b8     Total:22314      MisBP:0   MisRate:0.00%    MPKI:0.00
PC:18b74     Total:43      MisBP:0   MisRate:0.00%    MPKI:0.00
PC:163b6     Total:22215      MisBP:0   MisRate:0.00%    MPKI:0.00
PC:18b70     Total:43      MisBP:0   MisRate:0.00%    MPKI:0.00
PC:1646c     Total:22406      MisBP:0   MisRate:0.00%    MPKI:0.00
PC:18c38     Total:6499      MisBP:0   MisRate:0.00%    MPKI:0.00
PC:1647a     Total:22405      MisBP:0   MisRate:0.00%    MPKI:0.00
PC:18c36     Total:6509      MisBP:0   MisRate:0.00%    MPKI:0.00
PC:16478     Total:22407      MisBP:0   MisRate:0.00%    MPKI:0.00
PC:16476     Total:22415      MisBP:0   MisRate:0.00%    MPKI:0.00
PC:18c32     Total:6536      MisBP:0   MisRate:0.00%    MPKI:0.00
PC:16474     Total:22379      MisBP:0   MisRate:0.00%    MPKI:0.00
PC:16472     Total:22379      MisBP:0   MisRate:0.00%    MPKI:0.00
PC:16470     Total:22400      MisBP:0   MisRate:0.00%    MPKI:0.00
PC:18c2c     Total:6619      MisBP:0   MisRate:0.00%    MPKI:0.00
PC:1646e     Total:22401      MisBP:0   MisRate:0.00%    MPKI:0.00
PC:1647c     Total:22398      MisBP:0   MisRate:0.00%    MPKI:0.00
PC:18c28     Total:6654      MisBP:0   MisRate:0.00%    MPKI:0.00
PC:1646a     Total:22406      MisBP:0   MisRate:0.00%    MPKI:0.00
PC:18c24     Total:6661      MisBP:0   MisRate:0.00%    MPKI:0.00
PC:16466     Total:22406      MisBP:0   MisRate:0.00%    MPKI:0.00
PC:16464     Total:22432      MisBP:0   MisRate:0.00%    MPKI:0.00
PC:18c20     Total:13323      MisBP:0   MisRate:0.00%    MPKI:0.00
PC:16462     Total:22432      MisBP:0   MisRate:0.00%    MPKI:0.00
PC:18c1e     Total:6655      MisBP:0   MisRate:0.00%    MPKI:0.00
PC:16460     Total:22437      MisBP:0   MisRate:0.00%    MPKI:0.00
PC:18c1c     Total:6657      MisBP:0   MisRate:0.00%    MPKI:0.00
PC:1645e     Total:22456      MisBP:0   MisRate:0.00%    MPKI:0.00
PC:18c48     Total:237      MisBP:0   MisRate:0.00%    MPKI:0.00
PC:16498     Total:22364      MisBP:0   MisRate:0.00%    MPKI:0.00
PC:18c54     Total:22462      MisBP:0   MisRate:0.00%    MPKI:0.00
PC:16496     Total:22358      MisBP:0   MisRate:0.00%    MPKI:0.00
PC:18c52     Total:22463      MisBP:0   MisRate:0.00%    MPKI:0.00
PC:16494     Total:22369      MisBP:0   MisRate:0.00%    MPKI:0.00
PC:18c50     Total:22473      MisBP:0   MisRate:0.00%    MPKI:0.00
PC:16492     Total:22425      MisBP:0   MisRate:0.00%    MPKI:0.00
PC:16490     Total:22426      MisBP:0   MisRate:0.00%    MPKI:0.00
PC:18c4c     Total:237      MisBP:0   MisRate:0.00%    MPKI:0.00
PC:1648e     Total:22368      MisBP:0   MisRate:0.00%    MPKI:0.00
PC:1648c     Total:22368      MisBP:0   MisRate:0.00%    MPKI:0.00
PC:18c1a     Total:6657      MisBP:0   MisRate:0.00%    MPKI:0.00
PC:1648a     Total:22337      MisBP:0   MisRate:0.00%    MPKI:0.00
PC:18c44     Total:237      MisBP:0   MisRate:0.00%    MPKI:0.00
PC:16486     Total:22337      MisBP:0   MisRate:0.00%    MPKI:0.00
PC:18c40     Total:237      MisBP:0   MisRate:0.00%    MPKI:0.00
PC:16482     Total:22337      MisBP:0   MisRate:0.00%    MPKI:0.00
PC:18c3e     Total:264      MisBP:0   MisRate:0.00%    MPKI:0.00
PC:16480     Total:22339      MisBP:0   MisRate:0.00%    MPKI:0.00
PC:18c3c     Total:6488      MisBP:0   MisRate:0.00%    MPKI:0.00
PC:1647e     Total:22425      MisBP:0   MisRate:0.00%    MPKI:0.00
PC:18c3a     Total:6495      MisBP:0   MisRate:0.00%    MPKI:0.00
PC:1642a     Total:22610      MisBP:0   MisRate:0.00%    MPKI:0.00
PC:1643e     Total:22653      MisBP:0   MisRate:0.00%    MPKI:0.00
PC:1643a     Total:22632      MisBP:0   MisRate:0.00%    MPKI:0.00
PC:18bf6     Total:5482      MisBP:0   MisRate:0.00%    MPKI:0.00
PC:16438     Total:22634      MisBP:0   MisRate:0.00%    MPKI:0.00
PC:18bf4     Total:5491      MisBP:0   MisRate:0.00%    MPKI:0.00
PC:16436     Total:22644      MisBP:0   MisRate:0.00%    MPKI:0.00
PC:16434     Total:22612      MisBP:0   MisRate:0.00%    MPKI:0.00
PC:16432     Total:22617      MisBP:0   MisRate:0.00%    MPKI:0.00
PC:16430     Total:22608      MisBP:0   MisRate:0.00%    MPKI:0.00
PC:1642e     Total:22608      MisBP:0   MisRate:0.00%    MPKI:0.00
PC:1642c     Total:22608      MisBP:0   MisRate:0.00%    MPKI:0.00
PC:18bfc     Total:49      MisBP:0   MisRate:0.00%    MPKI:0.00
PC:16426     Total:22610      MisBP:0   MisRate:0.00%    MPKI:0.00
PC:16424     Total:22615      MisBP:0   MisRate:0.00%    MPKI:0.00
PC:16422     Total:22615      MisBP:0   MisRate:0.00%    MPKI:0.00
PC:16420     Total:22632      MisBP:0   MisRate:0.00%    MPKI:0.00
PC:18bdc     Total:41814      MisBP:0   MisRate:0.00%    MPKI:0.00
PC:1641e     Total:22632      MisBP:0   MisRate:0.00%    MPKI:0.00
PC:1641c     Total:22632      MisBP:0   MisRate:0.00%    MPKI:0.00
PC:18bd8     Total:42167      MisBP:0   MisRate:0.00%    MPKI:0.00
PC:1641a     Total:22562      MisBP:0   MisRate:0.00%    MPKI:0.00
PC:16416     Total:22606      MisBP:0   MisRate:0.00%    MPKI:0.00
PC:18c0a     Total:45      MisBP:0   MisRate:0.00%    MPKI:0.00
PC:1645c     Total:22458      MisBP:0   MisRate:0.00%    MPKI:0.00
PC:18c18     Total:45      MisBP:0   MisRate:0.00%    MPKI:0.00
PC:1645a     Total:22464      MisBP:0   MisRate:0.00%    MPKI:0.00
PC:18c14     Total:45      MisBP:0   MisRate:0.00%    MPKI:0.00
PC:16456     Total:22465      MisBP:0   MisRate:0.00%    MPKI:0.00
PC:18c12     Total:45      MisBP:0   MisRate:0.00%    MPKI:0.00
PC:16454     Total:22467      MisBP:0   MisRate:0.00%    MPKI:0.00
PC:18c10     Total:45      MisBP:0   MisRate:0.00%    MPKI:0.00
PC:16452     Total:22541      MisBP:0   MisRate:0.00%    MPKI:0.00
PC:18c0c     Total:45      MisBP:0   MisRate:0.00%    MPKI:0.00
PC:1644e     Total:22540      MisBP:0   MisRate:0.00%    MPKI:0.00
PC:16062     Total:22394      MisBP:0   MisRate:0.00%    MPKI:0.00
PC:1644c     Total:22540      MisBP:0   MisRate:0.00%    MPKI:0.00
PC:18c08     Total:45      MisBP:0   MisRate:0.00%    MPKI:0.00
PC:1644a     Total:22545      MisBP:0   MisRate:0.00%    MPKI:0.00
PC:18c06     Total:45      MisBP:0   MisRate:0.00%    MPKI:0.00
PC:16448     Total:22550      MisBP:0   MisRate:0.00%    MPKI:0.00
PC:18c04     Total:45      MisBP:0   MisRate:0.00%    MPKI:0.00
PC:16446     Total:22554      MisBP:0   MisRate:0.00%    MPKI:0.00
PC:16442     Total:22556      MisBP:0   MisRate:0.00%    MPKI:0.00
PC:18bfe     Total:45      MisBP:0   MisRate:0.00%    MPKI:0.00
PC:16440     Total:22557      MisBP:0   MisRate:0.00%    MPKI:0.00
PC:1225e     Total:81081      MisBP:0   MisRate:0.00%    MPKI:0.00
PC:159a0     Total:21946      MisBP:0   MisRate:0.00%    MPKI:0.00
PC:154b8     Total:39      MisBP:0   MisRate:0.00%    MPKI:0.00
PC:295c0     Total:2424      MisBP:0   MisRate:0.00%    MPKI:0.00
PC:292a8     Total:12      MisBP:0   MisRate:0.00%    MPKI:0.00
PC:12260     Total:80123      MisBP:0   MisRate:0.00%    MPKI:0.00
PC:190dc     Total:5      MisBP:0   MisRate:0.00%    MPKI:0.00
PC:1409a     Total:173      MisBP:0   MisRate:0.00%    MPKI:0.00
PC:1599e     Total:21946      MisBP:0   MisRate:0.00%    MPKI:0.00
PC:292a6     Total:13      MisBP:0   MisRate:0.00%    MPKI:0.00
PC:1519e     Total:27      MisBP:0   MisRate:0.00%    MPKI:0.00
PC:1015c     Total:31      MisBP:0   MisRate:0.00%    MPKI:0.00
PC:29790     Total:48      MisBP:0   MisRate:0.00%    MPKI:0.00
PC:292a2     Total:13      MisBP:0   MisRate:0.00%    MPKI:0.00
PC:1519a     Total:27      MisBP:0   MisRate:0.00%    MPKI:0.00
PC:1225a     Total:80815      MisBP:0   MisRate:0.00%    MPKI:0.00
PC:15998     Total:21946      MisBP:0   MisRate:0.00%    MPKI:0.00
PC:154b0     Total:7      MisBP:0   MisRate:0.00%    MPKI:0.00
PC:295b8     Total:2424      MisBP:0   MisRate:0.00%    MPKI:0.00
PC:292a0     Total:13      MisBP:0   MisRate:0.00%    MPKI:0.00
PC:15198     Total:27      MisBP:0   MisRate:0.00%    MPKI:0.00
PC:14158     Total:208      MisBP:0   MisRate:0.00%    MPKI:0.00
PC:190d4     Total:2      MisBP:0   MisRate:0.00%    MPKI:0.00
PC:2929e     Total:13      MisBP:0   MisRate:0.00%    MPKI:0.00
PC:29794     Total:48      MisBP:0   MisRate:0.00%    MPKI:0.00
PC:295cc     Total:2424      MisBP:0   MisRate:0.00%    MPKI:0.00
PC:292b4     Total:11      MisBP:0   MisRate:0.00%    MPKI:0.00
PC:14a2a     Total:582971      MisBP:0   MisRate:0.00%    MPKI:0.00
PC:1226c     Total:145396      MisBP:0   MisRate:0.00%    MPKI:0.00
PC:190e8     Total:5      MisBP:0   MisRate:0.00%    MPKI:0.00
PC:140a6     Total:173      MisBP:0   MisRate:0.00%    MPKI:0.00
PC:159aa     Total:22015      MisBP:0   MisRate:0.00%    MPKI:0.00
PC:159a8     Total:22015      MisBP:0   MisRate:0.00%    MPKI:0.00
PC:292ae     Total:11      MisBP:0   MisRate:0.00%    MPKI:0.00
PC:151a6     Total:27      MisBP:0   MisRate:0.00%    MPKI:0.00
PC:10164     Total:31      MisBP:0   MisRate:0.00%    MPKI:0.00
PC:10154     Total:244      MisBP:0   MisRate:0.00%    MPKI:0.00
PC:159a4     Total:21946      MisBP:0   MisRate:0.00%    MPKI:0.00
PC:154bc     Total:39      MisBP:0   MisRate:0.00%    MPKI:0.00
PC:295c4     Total:2424      MisBP:0   MisRate:0.00%    MPKI:0.00
PC:292ac     Total:12      MisBP:0   MisRate:0.00%    MPKI:0.00
PC:14a22     Total:583161      MisBP:0   MisRate:0.00%    MPKI:0.00
PC:12264     Total:80075      MisBP:0   MisRate:0.00%    MPKI:0.00
PC:154ba     Total:39      MisBP:0   MisRate:0.00%    MPKI:0.00
PC:292aa     Total:12      MisBP:0   MisRate:0.00%    MPKI:0.00
PC:151a2     Total:27      MisBP:0   MisRate:0.00%    MPKI:0.00
PC:10160     Total:31      MisBP:0   MisRate:0.00%    MPKI:0.00
PC:1223c     Total:78839      MisBP:0   MisRate:0.00%    MPKI:0.00
PC:295a8     Total:2424      MisBP:0   MisRate:0.00%    MPKI:0.00
PC:29290     Total:13      MisBP:0   MisRate:0.00%    MPKI:0.00
PC:15188     Total:27      MisBP:0   MisRate:0.00%    MPKI:0.00
PC:1549c     Total:7      MisBP:0   MisRate:0.00%    MPKI:0.00
PC:295a4     Total:2424      MisBP:0   MisRate:0.00%    MPKI:0.00
PC:2928c     Total:13      MisBP:0   MisRate:0.00%    MPKI:0.00
PC:295a0     Total:2424      MisBP:0   MisRate:0.00%    MPKI:0.00
PC:29288     Total:13      MisBP:0   MisRate:0.00%    MPKI:0.00
PC:15180     Total:27      MisBP:0   MisRate:0.00%    MPKI:0.00
PC:29284     Total:13      MisBP:0   MisRate:0.00%    MPKI:0.00
PC:1517c     Total:30      MisBP:0   MisRate:0.00%    MPKI:0.00
PC:154a0     Total:7      MisBP:0   MisRate:0.00%    MPKI:0.00
PC:1597a     Total:21954      MisBP:0   MisRate:0.00%    MPKI:0.00
PC:29280     Total:13      MisBP:0   MisRate:0.00%    MPKI:0.00
PC:15178     Total:30      MisBP:0   MisRate:0.00%    MPKI:0.00
PC:12238     Total:78843      MisBP:0   MisRate:0.00%    MPKI:0.00
PC:15976     Total:21954      MisBP:0   MisRate:0.00%    MPKI:0.00
PC:1548c     Total:21939      MisBP:0   MisRate:0.00%    MPKI:0.00
PC:29594     Total:2424      MisBP:0   MisRate:0.00%    MPKI:0.00
PC:2927c     Total:14      MisBP:0   MisRate:0.00%    MPKI:0.00
PC:15174     Total:30      MisBP:0   MisRate:0.00%    MPKI:0.00
PC:12234     Total:78846      MisBP:0   MisRate:0.00%    MPKI:0.00
PC:15488     Total:21939      MisBP:0   MisRate:0.00%    MPKI:0.00
PC:154a6     Total:7      MisBP:0   MisRate:0.00%    MPKI:0.00
PC:12256     Total:82220      MisBP:0   MisRate:0.00%    MPKI:0.00
PC:15994     Total:21946      MisBP:0   MisRate:0.00%    MPKI:0.00
PC:12252     Total:82221      MisBP:0   MisRate:0.00%    MPKI:0.00
PC:14152     Total:208      MisBP:0   MisRate:0.00%    MPKI:0.00
PC:19194     Total:3      MisBP:0   MisRate:0.00%    MPKI:0.00
PC:190ce     Total:2      MisBP:0   MisRate:0.00%    MPKI:0.00
PC:15990     Total:21946      MisBP:0   MisRate:0.00%    MPKI:0.00
PC:154a8     Total:7      MisBP:0   MisRate:0.00%    MPKI:0.00
PC:295b0     Total:2424      MisBP:0   MisRate:0.00%    MPKI:0.00
PC:29298     Total:13      MisBP:0   MisRate:0.00%    MPKI:0.00
PC:15190     Total:27      MisBP:0   MisRate:0.00%    MPKI:0.00
PC:154c4     Total:32      MisBP:0   MisRate:0.00%    MPKI:0.00
PC:29296     Total:13      MisBP:0   MisRate:0.00%    MPKI:0.00
PC:1224e     Total:435424      MisBP:0   MisRate:0.00%    MPKI:0.00
PC:154a4     Total:7      MisBP:0   MisRate:0.00%    MPKI:0.00
PC:295ac     Total:2424      MisBP:0   MisRate:0.00%    MPKI:0.00
PC:29294     Total:13      MisBP:0   MisRate:0.00%    MPKI:0.00
PC:1518c     Total:27      MisBP:0   MisRate:0.00%    MPKI:0.00
PC:1224c     Total:438018      MisBP:0   MisRate:0.00%    MPKI:0.00
PC:1414c     Total:208      MisBP:0   MisRate:0.00%    MPKI:0.00
PC:1918e     Total:3      MisBP:0   MisRate:0.00%    MPKI:0.00
PC:190c8     Total:2      MisBP:0   MisRate:0.00%    MPKI:0.00
PC:151c8     Total:1      MisBP:0   MisRate:0.00%    MPKI:0.00
PC:125da     Total:13      MisBP:0   MisRate:0.00%    MPKI:0.00
PC:39838     Total:2      MisBP:0   MisRate:0.00%    MPKI:0.00
PC:125f2     Total:329858      MisBP:0   MisRate:0.00%    MPKI:0.00
PC:154e4     Total:43      MisBP:0   MisRate:0.00%    MPKI:0.00
PC:295ec     Total:2423      MisBP:0   MisRate:0.00%    MPKI:0.00
PC:292d4     Total:4      MisBP:0   MisRate:0.00%    MPKI:0.00
PC:151cc     Total:1      MisBP:0   MisRate:0.00%    MPKI:0.00
PC:159ca     Total:22070      MisBP:0   MisRate:0.00%    MPKI:0.00
PC:154e0     Total:14      MisBP:0   MisRate:0.00%    MPKI:0.00
PC:295e8     Total:2423      MisBP:0   MisRate:0.00%    MPKI:0.00
PC:292d0     Total:4      MisBP:0   MisRate:0.00%    MPKI:0.00
PC:14d98     Total:11702      MisBP:0   MisRate:0.00%    MPKI:0.00
PC:159c6     Total:22035      MisBP:0   MisRate:0.00%    MPKI:0.00
PC:154da     Total:14      MisBP:0   MisRate:0.00%    MPKI:0.00
PC:159c0     Total:22035      MisBP:0   MisRate:0.00%    MPKI:0.00
PC:154d6     Total:14      MisBP:0   MisRate:0.00%    MPKI:0.00
PC:292c6     Total:7      MisBP:0   MisRate:0.00%    MPKI:0.00
PC:1017c     Total:31      MisBP:0   MisRate:0.00%    MPKI:0.00
PC:151be     Total:1      MisBP:0   MisRate:0.00%    MPKI:0.00
PC:154d4     Total:12      MisBP:0   MisRate:0.00%    MPKI:0.00
PC:295dc     Total:2424      MisBP:0   MisRate:0.00%    MPKI:0.00
PC:292c4     Total:7      MisBP:0   MisRate:0.00%    MPKI:0.00
PC:159ba     Total:22043      MisBP:0   MisRate:0.00%    MPKI:0.00
PC:15c72     Total:22554      MisBP:0   MisRate:0.00%    MPKI:0.00
PC:15cf6     Total:22258      MisBP:0   MisRate:0.00%    MPKI:0.00
PC:15cf4     Total:22258      MisBP:0   MisRate:0.00%    MPKI:0.00
PC:14cf8     Total:11966      MisBP:0   MisRate:0.00%    MPKI:0.00
PC:3974e     Total:11      MisBP:0   MisRate:0.00%    MPKI:0.00
PC:15c78     Total:22450      MisBP:0   MisRate:0.00%    MPKI:0.00
PC:14cf6     Total:11966      MisBP:0   MisRate:0.00%    MPKI:0.00
PC:12538     Total:12      MisBP:0   MisRate:0.00%    MPKI:0.00
PC:15c76     Total:22450      MisBP:0   MisRate:0.00%    MPKI:0.00
PC:14cf2     Total:11967      MisBP:0   MisRate:0.00%    MPKI:0.00
PC:12534     Total:12      MisBP:0   MisRate:0.00%    MPKI:0.00
PC:39748     Total:13      MisBP:0   MisRate:0.00%    MPKI:0.00
PC:154d2     Total:12      MisBP:0   MisRate:0.00%    MPKI:0.00
PC:14cf0     Total:11967      MisBP:0   MisRate:0.00%    MPKI:0.00
PC:12532     Total:12      MisBP:0   MisRate:0.00%    MPKI:0.00
PC:39746     Total:13      MisBP:0   MisRate:0.00%    MPKI:0.00
PC:14cee     Total:11968      MisBP:0   MisRate:0.00%    MPKI:0.00
PC:12530     Total:12      MisBP:0   MisRate:0.00%    MPKI:0.00
PC:39744     Total:13      MisBP:0   MisRate:0.00%    MPKI:0.00
PC:15c6e     Total:22554      MisBP:0   MisRate:0.00%    MPKI:0.00
PC:1252e     Total:12      MisBP:0   MisRate:0.00%    MPKI:0.00
PC:39742     Total:13      MisBP:0   MisRate:0.00%    MPKI:0.00
PC:15c6c     Total:22554      MisBP:0   MisRate:0.00%    MPKI:0.00
PC:292be     Total:11      MisBP:0   MisRate:0.00%    MPKI:0.00
PC:15c8c     Total:22316      MisBP:0   MisRate:0.00%    MPKI:0.00
PC:3975e     Total:17      MisBP:0   MisRate:0.00%    MPKI:0.00
PC:1254a     Total:1      MisBP:0   MisRate:0.00%    MPKI:0.00
PC:15c88     Total:22316      MisBP:0   MisRate:0.00%    MPKI:0.00
PC:15c68     Total:22552      MisBP:0   MisRate:0.00%    MPKI:0.00
PC:15c5a     Total:22571      MisBP:0   MisRate:0.00%    MPKI:0.00
PC:39710     Total:13      MisBP:0   MisRate:0.00%    MPKI:0.00
PC:14cba     Total:12227      MisBP:0   MisRate:0.00%    MPKI:0.00
PC:124fc     Total:39565      MisBP:0   MisRate:0.00%    MPKI:0.00
PC:15c3a     Total:22701      MisBP:0   MisRate:0.00%    MPKI:0.00
PC:154ce     Total:12      MisBP:0   MisRate:0.00%    MPKI:0.00
PC:1254e     Total:1      MisBP:0   MisRate:0.00%    MPKI:0.00
PC:10174     Total:31      MisBP:0   MisRate:0.00%    MPKI:0.00
PC:151b6     Total:1      MisBP:0   MisRate:0.00%    MPKI:0.00
PC:12276     Total:143939      MisBP:0   MisRate:0.00%    MPKI:0.00
PC:159b4     Total:22014      MisBP:0   MisRate:0.00%    MPKI:0.00
PC:154ca     Total:32      MisBP:0   MisRate:0.00%    MPKI:0.00
PC:159b0     Total:22011      MisBP:0   MisRate:0.00%    MPKI:0.00
PC:292b8     Total:11      MisBP:0   MisRate:0.00%    MPKI:0.00
PC:154c6     Total:32      MisBP:0   MisRate:0.00%    MPKI:0.00
PC:1226e     Total:289747      MisBP:0   MisRate:0.00%    MPKI:0.00
PC:159ac     Total:22011      MisBP:0   MisRate:0.00%    MPKI:0.00
PC:125e4     Total:8      MisBP:0   MisRate:0.00%    MPKI:0.00
PC:292c2     Total:7      MisBP:0   MisRate:0.00%    MPKI:0.00
PC:10178     Total:31      MisBP:0   MisRate:0.00%    MPKI:0.00
PC:151ba     Total:1      MisBP:0   MisRate:0.00%    MPKI:0.00
PC:159b8     Total:22043      MisBP:0   MisRate:0.00%    MPKI:0.00
PC:154d0     Total:12      MisBP:0   MisRate:0.00%    MPKI:0.00
PC:295d8     Total:2424      MisBP:0   MisRate:0.00%    MPKI:0.00
PC:292c0     Total:7      MisBP:0   MisRate:0.00%    MPKI:0.00
PC:159b6     Total:22044      MisBP:0   MisRate:0.00%    MPKI:0.00
PC:397fc     Total:7      MisBP:0   MisRate:0.00%    MPKI:0.00
PC:14da6     Total:12058      MisBP:0   MisRate:0.00%    MPKI:0.00
PC:125e8     Total:7      MisBP:0   MisRate:0.00%    MPKI:0.00
PC:29590     Total:2424      MisBP:0   MisRate:0.00%    MPKI:0.00
PC:12560     Total:1      MisBP:0   MisRate:0.00%    MPKI:0.00
PC:15c9e     Total:22269      MisBP:0   MisRate:0.00%    MPKI:0.00
PC:14d18     Total:11922      MisBP:0   MisRate:0.00%    MPKI:0.00
PC:1255a     Total:1      MisBP:0   MisRate:0.00%    MPKI:0.00
PC:15c98     Total:22270      MisBP:0   MisRate:0.00%    MPKI:0.00
PC:3976a     Total:15      MisBP:0   MisRate:0.00%    MPKI:0.00
PC:14d14     Total:11702      MisBP:0   MisRate:0.00%    MPKI:0.00
PC:12556     Total:1      MisBP:0   MisRate:0.00%    MPKI:0.00
PC:39762     Total:15      MisBP:0   MisRate:0.00%    MPKI:0.00
PC:14d0c     Total:11705      MisBP:0   MisRate:0.00%    MPKI:0.00
PC:12206     Total:655118      MisBP:0   MisRate:0.00%    MPKI:0.00
PC:1220e     Total:655070      MisBP:0   MisRate:0.00%    MPKI:0.00
PC:1594c     Total:21959      MisBP:0   MisRate:0.00%    MPKI:0.00
PC:15da0     Total:22275      MisBP:0   MisRate:0.00%    MPKI:0.00
PC:1220c     Total:655072      MisBP:0   MisRate:0.00%    MPKI:0.00
PC:36244     Total:37      MisBP:0   MisRate:0.00%    MPKI:0.00
PC:1220a     Total:655084      MisBP:0   MisRate:0.00%    MPKI:0.00
PC:15948     Total:21959      MisBP:0   MisRate:0.00%    MPKI:0.00
PC:15d9c     Total:22275      MisBP:0   MisRate:0.00%    MPKI:0.00
PC:12208     Total:655115      MisBP:0   MisRate:0.00%    MPKI:0.00
PC:12228     Total:175      MisBP:0   MisRate:0.00%    MPKI:0.00
PC:15966     Total:21958      MisBP:0   MisRate:0.00%    MPKI:0.00
PC:1514e     Total:7      MisBP:0   MisRate:0.00%    MPKI:0.00
PC:15944     Total:21959      MisBP:0   MisRate:0.00%    MPKI:0.00
PC:12202     Total:655120      MisBP:0   MisRate:0.00%    MPKI:0.00
PC:121fe     Total:1310257      MisBP:0   MisRate:0.00%    MPKI:0.00
PC:121f8     Total:679      MisBP:0   MisRate:0.00%    MPKI:0.00
PC:29240     Total:342      MisBP:0   MisRate:0.00%    MPKI:0.00
PC:121f6     Total:679      MisBP:0   MisRate:0.00%    MPKI:0.00
PC:121f4     Total:685      MisBP:0   MisRate:0.00%    MPKI:0.00
PC:121f2     Total:685      MisBP:0   MisRate:0.00%    MPKI:0.00
PC:1906e     Total:1      MisBP:0   MisRate:0.00%    MPKI:0.00
PC:11e3c     Total:42      MisBP:0   MisRate:0.00%    MPKI:0.00
PC:1906c     Total:1      MisBP:0   MisRate:0.00%    MPKI:0.00
PC:1221a     Total:654954      MisBP:0   MisRate:0.00%    MPKI:0.00
PC:39754     Total:11      MisBP:0   MisRate:0.00%    MPKI:0.00
PC:15c7e     Total:22450      MisBP:0   MisRate:0.00%    MPKI:0.00
PC:14cfc     Total:11912      MisBP:0   MisRate:0.00%    MPKI:0.00
PC:1253e     Total:740      MisBP:0   MisRate:0.00%    MPKI:0.00
PC:39752     Total:11      MisBP:0   MisRate:0.00%    MPKI:0.00
PC:15c7c     Total:22450      MisBP:0   MisRate:0.00%    MPKI:0.00
PC:15db6     Total:22335      MisBP:0   MisRate:0.00%    MPKI:0.00
PC:12220     Total:452      MisBP:0   MisRate:0.00%    MPKI:0.00
PC:15db2     Total:22334      MisBP:0   MisRate:0.00%    MPKI:0.00
PC:1221e     Total:452      MisBP:0   MisRate:0.00%    MPKI:0.00
PC:15db0     Total:22334      MisBP:0   MisRate:0.00%    MPKI:0.00
PC:121ee     Total:834      MisBP:0   MisRate:0.00%    MPKI:0.00
PC:15958     Total:21959      MisBP:0   MisRate:0.00%    MPKI:0.00
PC:15dac     Total:22334      MisBP:0   MisRate:0.00%    MPKI:0.00
PC:15daa     Total:22358      MisBP:0   MisRate:0.00%    MPKI:0.00
PC:12216     Total:654962      MisBP:0   MisRate:0.00%    MPKI:0.00
PC:15954     Total:21959      MisBP:0   MisRate:0.00%    MPKI:0.00
PC:15da8     Total:22305      MisBP:0   MisRate:0.00%    MPKI:0.00
PC:12214     Total:654967      MisBP:0   MisRate:0.00%    MPKI:0.00
PC:15da6     Total:22305      MisBP:0   MisRate:0.00%    MPKI:0.00
PC:12210     Total:654972      MisBP:0   MisRate:0.00%    MPKI:0.00
PC:29256     Total:28      MisBP:0   MisRate:0.00%    MPKI:0.00
PC:121ba     Total:922      MisBP:0   MisRate:0.00%    MPKI:0.00
PC:121ce     Total:888      MisBP:0   MisRate:0.00%    MPKI:0.00
PC:121ca     Total:888      MisBP:0   MisRate:0.00%    MPKI:0.00
PC:121c8     Total:888      MisBP:0   MisRate:0.00%    MPKI:0.00
PC:16886     Total:20      MisBP:0   MisRate:0.00%    MPKI:0.00
PC:19044     Total:1      MisBP:0   MisRate:0.00%    MPKI:0.00
PC:121c4     Total:890      MisBP:0   MisRate:0.00%    MPKI:0.00
PC:121c2     Total:890      MisBP:0   MisRate:0.00%    MPKI:0.00
PC:1903e     Total:1      MisBP:0   MisRate:0.00%    MPKI:0.00
PC:121bc     Total:922      MisBP:0   MisRate:0.00%    MPKI:0.00
PC:1687a     Total:22      MisBP:0   MisRate:0.00%    MPKI:0.00
PC:19038     Total:2      MisBP:0   MisRate:0.00%    MPKI:0.00
PC:1904c     Total:1      MisBP:0   MisRate:0.00%    MPKI:0.00
PC:121b6     Total:922      MisBP:0   MisRate:0.00%    MPKI:0.00
PC:19032     Total:2      MisBP:0   MisRate:0.00%    MPKI:0.00
PC:121b4     Total:923      MisBP:0   MisRate:0.00%    MPKI:0.00
PC:121b2     Total:924      MisBP:0   MisRate:0.00%    MPKI:0.00
PC:16870     Total:22      MisBP:0   MisRate:0.00%    MPKI:0.00
PC:1902e     Total:2      MisBP:0   MisRate:0.00%    MPKI:0.00
PC:121b0     Total:924      MisBP:0   MisRate:0.00%    MPKI:0.00
PC:1686e     Total:22      MisBP:0   MisRate:0.00%    MPKI:0.00
PC:1902c     Total:2      MisBP:0   MisRate:0.00%    MPKI:0.00
PC:15d98     Total:22275      MisBP:0   MisRate:0.00%    MPKI:0.00
PC:2924c     Total:46      MisBP:0   MisRate:0.00%    MPKI:0.00
PC:1689e     Total:4      MisBP:0   MisRate:0.00%    MPKI:0.00
PC:121ec     Total:180      MisBP:0   MisRate:0.00%    MPKI:0.00
PC:168aa     Total:2      MisBP:0   MisRate:0.00%    MPKI:0.00
PC:19068     Total:1      MisBP:0   MisRate:0.00%    MPKI:0.00
PC:121ea     Total:185      MisBP:0   MisRate:0.00%    MPKI:0.00
PC:121e6     Total:188      MisBP:0   MisRate:0.00%    MPKI:0.00
PC:168a4     Total:4      MisBP:0   MisRate:0.00%    MPKI:0.00
PC:19062     Total:1      MisBP:0   MisRate:0.00%    MPKI:0.00
PC:121e4     Total:188      MisBP:0   MisRate:0.00%    MPKI:0.00
PC:121e2     Total:189      MisBP:0   MisRate:0.00%    MPKI:0.00
PC:1905e     Total:1      MisBP:0   MisRate:0.00%    MPKI:0.00
PC:121e0     Total:189      MisBP:0   MisRate:0.00%    MPKI:0.00
PC:12540     Total:724      MisBP:0   MisRate:0.00%    MPKI:0.00
PC:1905c     Total:1      MisBP:0   MisRate:0.00%    MPKI:0.00
PC:19058     Total:1      MisBP:0   MisRate:0.00%    MPKI:0.00
PC:121da     Total:881      MisBP:0   MisRate:0.00%    MPKI:0.00
PC:121d8     Total:883      MisBP:0   MisRate:0.00%    MPKI:0.00
PC:19054     Total:1      MisBP:0   MisRate:0.00%    MPKI:0.00
PC:121d4     Total:885      MisBP:0   MisRate:0.00%    MPKI:0.00
PC:121d0     Total:885      MisBP:0   MisRate:0.00%    MPKI:0.00
PC:140d0     Total:228      MisBP:0   MisRate:0.00%    MPKI:0.00
PC:19112     Total:5      MisBP:0   MisRate:0.00%    MPKI:0.00
PC:1688e     Total:20      MisBP:0   MisRate:0.00%    MPKI:0.00
PC:159cc     Total:22070      MisBP:0   MisRate:0.00%    MPKI:0.00
PC:159da     Total:22067      MisBP:0   MisRate:0.00%    MPKI:0.00
PC:11e56     Total:367      MisBP:0   MisRate:0.00%    MPKI:0.00
PC:15e2c     Total:22561      MisBP:0   MisRate:0.00%    MPKI:0.00
PC:11e54     Total:368      MisBP:0   MisRate:0.00%    MPKI:0.00
PC:11e52     Total:368      MisBP:0   MisRate:0.00%    MPKI:0.00
PC:15e28     Total:22575      MisBP:0   MisRate:0.00%    MPKI:0.00
PC:11e50     Total:374      MisBP:0   MisRate:0.00%    MPKI:0.00
PC:11e4e     Total:374      MisBP:0   MisRate:0.00%    MPKI:0.00
PC:11e4c     Total:374      MisBP:0   MisRate:0.00%    MPKI:0.00
PC:11e4a     Total:376      MisBP:0   MisRate:0.00%    MPKI:0.00
PC:154e6     Total:43      MisBP:0   MisRate:0.00%    MPKI:0.00
PC:151dc     Total:8      MisBP:0   MisRate:0.00%    MPKI:0.00
PC:11e48     Total:376      MisBP:0   MisRate:0.00%    MPKI:0.00
PC:154e2     Total:43      MisBP:0   MisRate:0.00%    MPKI:0.00
PC:292d2     Total:4      MisBP:0   MisRate:0.00%    MPKI:0.00
PC:10188     Total:29      MisBP:0   MisRate:0.00%    MPKI:0.00
PC:151ca     Total:1      MisBP:0   MisRate:0.00%    MPKI:0.00
PC:297b8     Total:94      MisBP:0   MisRate:0.00%    MPKI:0.00
PC:159c8     Total:22070      MisBP:0   MisRate:0.00%    MPKI:0.00
PC:11e44     Total:756      MisBP:0   MisRate:0.00%    MPKI:0.00
PC:154de     Total:14      MisBP:0   MisRate:0.00%    MPKI:0.00
PC:292ce     Total:6      MisBP:0   MisRate:0.00%    MPKI:0.00
PC:10184     Total:116      MisBP:0   MisRate:0.00%    MPKI:0.00
PC:15166     Total:7      MisBP:0   MisRate:0.00%    MPKI:0.00
PC:29278     Total:14      MisBP:0   MisRate:0.00%    MPKI:0.00
PC:15170     Total:30      MisBP:0   MisRate:0.00%    MPKI:0.00
PC:12230     Total:1      MisBP:0   MisRate:0.00%    MPKI:0.00
PC:29274     Total:30      MisBP:0   MisRate:0.00%    MPKI:0.00
PC:1516c     Total:30      MisBP:0   MisRate:0.00%    MPKI:0.00
PC:1222c     Total:175      MisBP:0   MisRate:0.00%    MPKI:0.00
PC:1596a     Total:21958      MisBP:0   MisRate:0.00%    MPKI:0.00
PC:15482     Total:43878      MisBP:0   MisRate:0.00%    MPKI:0.00
PC:29272     Total:15      MisBP:0   MisRate:0.00%    MPKI:0.00
PC:1547e     Total:21939      MisBP:0   MisRate:0.00%    MPKI:0.00
PC:2926e     Total:15      MisBP:0   MisRate:0.00%    MPKI:0.00
PC:297b4     Total:48      MisBP:0   MisRate:0.00%    MPKI:0.00
PC:29264     Total:15      MisBP:0   MisRate:0.00%    MPKI:0.00
PC:1515c     Total:7      MisBP:0   MisRate:0.00%    MPKI:0.00
PC:121fa     Total:679      MisBP:0   MisRate:0.00%    MPKI:0.00
PC:15e30     Total:22561      MisBP:0   MisRate:0.00%    MPKI:0.00
PC:362d6     Total:3      MisBP:0   MisRate:0.00%    MPKI:0.00
PC:13108     Total:648679      MisBP:0   MisRate:0.00%    MPKI:0.00
PC:11e58     Total:366      MisBP:0   MisRate:0.00%    MPKI:0.00
PC:154f4     Total:33      MisBP:0   MisRate:0.00%    MPKI:0.00
PC:295fc     Total:2422      MisBP:0   MisRate:0.00%    MPKI:0.00
PC:292e4     Total:140      MisBP:0   MisRate:0.00%    MPKI:0.00
PC:14d06     Total:11542      MisBP:0   MisRate:0.00%    MPKI:0.00
PC:1255c     Total:1      MisBP:0   MisRate:0.00%    MPKI:0.00
PC:12272     Total:144228      MisBP:0   MisRate:0.00%    MPKI:0.00
PC:14a30     Total:329189      MisBP:0   MisRate:0.00%    MPKI:0.00
PC:14d12     Total:11702      MisBP:0   MisRate:0.00%    MPKI:0.00
PC:12554     Total:1      MisBP:0   MisRate:0.00%    MPKI:0.00
PC:1226a     Total:144986      MisBP:0   MisRate:0.00%    MPKI:0.00
PC:14a28     Total:583038      MisBP:0   MisRate:0.00%    MPKI:0.00
PC:15c92     Total:22284      MisBP:0   MisRate:0.00%    MPKI:0.00
PC:14d0e     Total:11704      MisBP:0   MisRate:0.00%    MPKI:0.00
PC:12550     Total:1      MisBP:0   MisRate:0.00%    MPKI:0.00
PC:15c8e     Total:22316      MisBP:0   MisRate:0.00%    MPKI:0.00
PC:14d1a     Total:11922      MisBP:0   MisRate:0.00%    MPKI:0.00
PC:12548     Total:1      MisBP:0   MisRate:0.00%    MPKI:0.00
PC:3975c     Total:17      MisBP:0   MisRate:0.00%    MPKI:0.00
PC:15c86     Total:22316      MisBP:0   MisRate:0.00%    MPKI:0.00
PC:12544     Total:1      MisBP:0   MisRate:0.00%    MPKI:0.00
PC:39758     Total:11      MisBP:0   MisRate:0.00%    MPKI:0.00
PC:15c82     Total:22349      MisBP:0   MisRate:0.00%    MPKI:0.00
PC:14d00     Total:11542      MisBP:0   MisRate:0.00%    MPKI:0.00
PC:12542     Total:1      MisBP:0   MisRate:0.00%    MPKI:0.00
PC:15c80     Total:22349      MisBP:0   MisRate:0.00%    MPKI:0.00
PC:14cfe     Total:11911      MisBP:0   MisRate:0.00%    MPKI:0.00
PC:15ca4     Total:22269      MisBP:0   MisRate:0.00%    MPKI:0.00
PC:159c4     Total:22035      MisBP:0   MisRate:0.00%    MPKI:0.00
PC:11e40     Total:380      MisBP:0   MisRate:0.00%    MPKI:0.00
PC:292cc     Total:7      MisBP:0   MisRate:0.00%    MPKI:0.00
PC:151c4     Total:1      MisBP:0   MisRate:0.00%    MPKI:0.00
PC:12284     Total:137555      MisBP:0   MisRate:0.00%    MPKI:0.00
PC:11e3e     Total:398      MisBP:0   MisRate:0.00%    MPKI:0.00
PC:14d28     Total:12102      MisBP:0   MisRate:0.00%    MPKI:0.00
PC:1256a     Total:1      MisBP:0   MisRate:0.00%    MPKI:0.00
PC:12566     Total:1      MisBP:0   MisRate:0.00%    MPKI:0.00
PC:3977a     Total:16      MisBP:0   MisRate:0.00%    MPKI:0.00
PC:14a3a     Total:331229      MisBP:0   MisRate:0.00%    MPKI:0.00
PC:15cf8     Total:22258      MisBP:0   MisRate:0.00%    MPKI:0.00
PC:14d22     Total:11919      MisBP:0   MisRate:0.00%    MPKI:0.00
PC:12564     Total:1      MisBP:0   MisRate:0.00%    MPKI:0.00
PC:1227a     Total:141836      MisBP:0   MisRate:0.00%    MPKI:0.00
PC:14a38     Total:331271      MisBP:0   MisRate:0.00%    MPKI:0.00
PC:15ca2     Total:22269      MisBP:0   MisRate:0.00%    MPKI:0.00
PC:14d20     Total:11920      MisBP:0   MisRate:0.00%    MPKI:0.00
PC:12562     Total:1      MisBP:0   MisRate:0.00%    MPKI:0.00
PC:12278     Total:143863      MisBP:0   MisRate:0.00%    MPKI:0.00
PC:14a36     Total:331317      MisBP:0   MisRate:0.00%    MPKI:0.00
PC:15ca0     Total:22269      MisBP:0   MisRate:0.00%    MPKI:0.00
PC:15f72     Total:22347      MisBP:0   MisRate:0.00%    MPKI:0.00
PC:15f96     Total:22343      MisBP:0   MisRate:0.00%    MPKI:0.00
PC:15f94     Total:22331      MisBP:0   MisRate:0.00%    MPKI:0.00
PC:15f90     Total:22331      MisBP:0   MisRate:0.00%    MPKI:0.00
PC:15f8c     Total:22331      MisBP:0   MisRate:0.00%    MPKI:0.00
PC:15f88     Total:22331      MisBP:0   MisRate:0.00%    MPKI:0.00
PC:15f86     Total:22331      MisBP:0   MisRate:0.00%    MPKI:0.00
PC:15f84     Total:22299      MisBP:0   MisRate:0.00%    MPKI:0.00
PC:15f80     Total:22299      MisBP:0   MisRate:0.00%    MPKI:0.00
PC:15f7e     Total:22341      MisBP:0   MisRate:0.00%    MPKI:0.00
PC:15f7a     Total:22345      MisBP:0   MisRate:0.00%    MPKI:0.00
PC:15f76     Total:22347      MisBP:0   MisRate:0.00%    MPKI:0.00
PC:15f98     Total:22308      MisBP:0   MisRate:0.00%    MPKI:0.00
PC:15f6e     Total:22350      MisBP:0   MisRate:0.00%    MPKI:0.00
PC:15f6c     Total:22350      MisBP:0   MisRate:0.00%    MPKI:0.00
PC:15f6a     Total:22351      MisBP:0   MisRate:0.00%    MPKI:0.00
PC:15f66     Total:22347      MisBP:0   MisRate:0.00%    MPKI:0.00
PC:15f64     Total:22347      MisBP:0   MisRate:0.00%    MPKI:0.00
PC:15f62     Total:22349      MisBP:0   MisRate:0.00%    MPKI:0.00
PC:15f5e     Total:22351      MisBP:0   MisRate:0.00%    MPKI:0.00
PC:15f5c     Total:22351      MisBP:0   MisRate:0.00%    MPKI:0.00
PC:15f5a     Total:22352      MisBP:0   MisRate:0.00%    MPKI:0.00
PC:15f58     Total:22352      MisBP:0   MisRate:0.00%    MPKI:0.00
PC:15f56     Total:22302      MisBP:0   MisRate:0.00%    MPKI:0.00
PC:10f70     Total:1050      MisBP:0   MisRate:0.00%    MPKI:0.00
PC:15fc2     Total:22243      MisBP:0   MisRate:0.00%    MPKI:0.00
PC:10f80     Total:210      MisBP:0   MisRate:0.00%    MPKI:0.00
PC:15fbe     Total:22247      MisBP:0   MisRate:0.00%    MPKI:0.00
PC:10f7c     Total:210      MisBP:0   MisRate:0.00%    MPKI:0.00
PC:15fba     Total:22345      MisBP:0   MisRate:0.00%    MPKI:0.00
PC:15fb8     Total:22345      MisBP:0   MisRate:0.00%    MPKI:0.00
PC:10f76     Total:210      MisBP:0   MisRate:0.00%    MPKI:0.00
PC:15fb6     Total:22345      MisBP:0   MisRate:0.00%    MPKI:0.00
PC:15fb4     Total:22314      MisBP:0   MisRate:0.00%    MPKI:0.00
PC:10f72     Total:210      MisBP:0   MisRate:0.00%    MPKI:0.00
PC:15fb2     Total:22314      MisBP:0   MisRate:0.00%    MPKI:0.00
PC:15f54     Total:22348      MisBP:0   MisRate:0.00%    MPKI:0.00
PC:15fb0     Total:22314      MisBP:0   MisRate:0.00%    MPKI:0.00
PC:15fae     Total:22321      MisBP:0   MisRate:0.00%    MPKI:0.00
PC:15fac     Total:22325      MisBP:0   MisRate:0.00%    MPKI:0.00
PC:15faa     Total:22357      MisBP:0   MisRate:0.00%    MPKI:0.00
PC:15fa6     Total:22357      MisBP:0   MisRate:0.00%    MPKI:0.00
PC:15fa4     Total:22357      MisBP:0   MisRate:0.00%    MPKI:0.00
PC:15fa2     Total:22357      MisBP:0   MisRate:0.00%    MPKI:0.00
PC:15fa0     Total:22357      MisBP:0   MisRate:0.00%    MPKI:0.00
PC:15f9c     Total:22357      MisBP:0   MisRate:0.00%    MPKI:0.00
PC:15f9a     Total:22357      MisBP:0   MisRate:0.00%    MPKI:0.00
PC:15f1c     Total:22282      MisBP:0   MisRate:0.00%    MPKI:0.00
PC:10eec     Total:175      MisBP:0   MisRate:0.00%    MPKI:0.00
PC:15f2a     Total:22271      MisBP:0   MisRate:0.00%    MPKI:0.00
PC:10ee8     Total:196      MisBP:0   MisRate:0.00%    MPKI:0.00
PC:15f28     Total:22271      MisBP:0   MisRate:0.00%    MPKI:0.00
PC:10ee6     Total:196      MisBP:0   MisRate:0.00%    MPKI:0.00
PC:15f26     Total:22275      MisBP:0   MisRate:0.00%    MPKI:0.00
PC:10ee4     Total:196      MisBP:0   MisRate:0.00%    MPKI:0.00
PC:15f22     Total:22282      MisBP:0   MisRate:0.00%    MPKI:0.00
PC:10ee0     Total:196      MisBP:0   MisRate:0.00%    MPKI:0.00
PC:15f1e     Total:22282      MisBP:0   MisRate:0.00%    MPKI:0.00
PC:10edc     Total:3      MisBP:0   MisRate:0.00%    MPKI:0.00
PC:15f2e     Total:22305      MisBP:0   MisRate:0.00%    MPKI:0.00
PC:15f18     Total:22282      MisBP:0   MisRate:0.00%    MPKI:0.00
PC:15f14     Total:22284      MisBP:0   MisRate:0.00%    MPKI:0.00
PC:10ed2     Total:2      MisBP:0   MisRate:0.00%    MPKI:0.00
PC:15f12     Total:22307      MisBP:0   MisRate:0.00%    MPKI:0.00
PC:15f10     Total:22308      MisBP:0   MisRate:0.00%    MPKI:0.00
PC:10ece     Total:2      MisBP:0   MisRate:0.00%    MPKI:0.00
[...]
PC:1523e     Total:3      MisBP:0   MisRate:0.00%    MPKI:0.00
PC:15aba     Total:22206      MisBP:0   MisRate:0.00%    MPKI:0.00
PC:15a84     Total:22300      MisBP:0   MisRate:0.00%    MPKI:0.00
PC:101fc     Total:6      MisBP:0   MisRate:0.00%    MPKI:0.00
PC:15ae8     Total:22316      MisBP:0   MisRate:0.00%    MPKI:0.00
PC:123e0     Total:80428      MisBP:0   MisRate:0.00%    MPKI:0.00
PC:15b1e     Total:22459      MisBP:0   MisRate:0.00%    MPKI:0.00
PC:18ff8     Total:3      MisBP:0   MisRate:0.00%    MPKI:0.00
PC:18ffc     Total:3      MisBP:0   MisRate:0.00%    MPKI:0.00
PC:1217e     Total:1231      MisBP:0   MisRate:0.00%    MPKI:0.00
PC:19208     Total:3      MisBP:0   MisRate:0.00%    MPKI:0.00
PC:1683a     Total:11004      MisBP:0   MisRate:0.00%    MPKI:0.00
PC:1217c     Total:1231      MisBP:0   MisRate:0.00%    MPKI:0.00
PC:11ace     Total:247293      MisBP:0   MisRate:0.00%    MPKI:0.00
PC:1520c     Total:4      MisBP:0   MisRate:0.00%    MPKI:0.00
PC:159a6     Total:22008      MisBP:0   MisRate:0.00%    MPKI:0.00
PC:11f8e     Total:130837      MisBP:0   MisRate:0.00%    MPKI:0.00
PC:125f4     Total:329858      MisBP:0   MisRate:0.00%    MPKI:0.00
PC:14a26     Total:583073      MisBP:0   MisRate:0.00%    MPKI:0.00
PC:12268     Total:80057      MisBP:0   MisRate:0.00%    MPKI:0.00
PC:11ad2     Total:234160      MisBP:0   MisRate:0.00%    MPKI:0.00
PC:1217a     Total:1018      MisBP:0   MisRate:0.00%    MPKI:0.00
PC:190e4     Total:5      MisBP:0   MisRate:0.00%    MPKI:0.00
PC:140a2     Total:173      MisBP:0   MisRate:0.00%    MPKI:0.00
PC:119be     Total:12270123      MisBP:0   MisRate:0.00%    MPKI:0.00
PC:1417c     Total:31      MisBP:0   MisRate:0.00%    MPKI:0.00
PC:191be     Total:3      MisBP:0   MisRate:0.00%    MPKI:0.00
PC:190f8     Total:5      MisBP:0   MisRate:0.00%    MPKI:0.00
PC:140b6     Total:173      MisBP:0   MisRate:0.00%    MPKI:0.00
PC:1920c     Total:3      MisBP:0   MisRate:0.00%    MPKI:0.00
PC:1417e     Total:31      MisBP:1   MisRate:3.23%    MPKI:0.00
PC:12fd8     Total:1      MisBP:1   MisRate:100.00%    MPKI:0.00
PC:10f9c     Total:186      MisBP:1   MisRate:0.54%    MPKI:0.00
PC:14bfe     Total:9230      MisBP:1   MisRate:0.01%    MPKI:0.00
PC:11c66     Total:4      MisBP:1   MisRate:25.00%    MPKI:0.00
PC:152f0     Total:134      MisBP:1   MisRate:0.75%    MPKI:0.00
PC:1272a     Total:180      MisBP:1   MisRate:0.56%    MPKI:0.00
PC:15498     Total:21936      MisBP:1   MisRate:0.00%    MPKI:0.00
PC:12902     Total:179      MisBP:1   MisRate:0.56%    MPKI:0.00
PC:39800     Total:5      MisBP:1   MisRate:20.00%    MPKI:0.00
PC:15504     Total:6      MisBP:1   MisRate:16.67%    MPKI:0.00
PC:12fde     Total:1      MisBP:1   MisRate:100.00%    MPKI:0.00
PC:14f2e     Total:5      MisBP:1   MisRate:20.00%    MPKI:0.00
PC:165a8     Total:1      MisBP:1   MisRate:100.00%    MPKI:0.00
PC:13000     Total:7      MisBP:1   MisRate:14.29%    MPKI:0.00
PC:18fa0     Total:9      MisBP:1   MisRate:11.11%    MPKI:0.00
PC:14af2     Total:1      MisBP:1   MisRate:100.00%    MPKI:0.00
PC:11b88     Total:1      MisBP:1   MisRate:100.00%    MPKI:0.00
PC:15408     Total:21977      MisBP:1   MisRate:0.00%    MPKI:0.00
PC:15196     Total:27      MisBP:1   MisRate:3.70%    MPKI:0.00
PC:130ae     Total:956487      MisBP:1   MisRate:0.00%    MPKI:0.00
PC:11c96     Total:8      MisBP:1   MisRate:12.50%    MPKI:0.00
PC:11d68     Total:5      MisBP:1   MisRate:20.00%    MPKI:0.00
PC:125b2     Total:1      MisBP:1   MisRate:100.00%    MPKI:0.00
PC:167d0     Total:447      MisBP:1   MisRate:0.22%    MPKI:0.00
PC:14f1e     Total:39      MisBP:1   MisRate:2.56%    MPKI:0.00
PC:125f0     Total:329852      MisBP:1   MisRate:0.00%    MPKI:0.00
PC:11a16     Total:398766      MisBP:1   MisRate:0.00%    MPKI:0.00
PC:16896     Total:13      MisBP:2   MisRate:15.38%    MPKI:0.00
PC:13074     Total:1725      MisBP:2   MisRate:0.12%    MPKI:0.00
PC:14f58     Total:30      MisBP:2   MisRate:6.67%    MPKI:0.00
PC:1516a     Total:7      MisBP:2   MisRate:28.57%    MPKI:0.00
PC:15120     Total:43      MisBP:2   MisRate:4.65%    MPKI:0.00
PC:121f0     Total:834      MisBP:2   MisRate:0.24%    MPKI:0.00
PC:29348     Total:219      MisBP:2   MisRate:0.91%    MPKI:0.00
PC:12640     Total:17      MisBP:2   MisRate:11.76%    MPKI:0.00
PC:16696     Total:21      MisBP:2   MisRate:9.52%    MPKI:0.00
PC:10ecc     Total:193      MisBP:2   MisRate:1.04%    MPKI:0.00
PC:1532a     Total:8      MisBP:2   MisRate:25.00%    MPKI:0.00
PC:14bc4     Total:301      MisBP:2   MisRate:0.66%    MPKI:0.00
PC:15286     Total:156      MisBP:2   MisRate:1.28%    MPKI:0.00
PC:29470     Total:174      MisBP:2   MisRate:1.15%    MPKI:0.00
PC:140be     Total:173      MisBP:2   MisRate:1.16%    MPKI:0.00
PC:39760     Total:17      MisBP:2   MisRate:11.76%    MPKI:0.00
PC:39778     Total:18      MisBP:2   MisRate:11.11%    MPKI:0.00
PC:18fb2     Total:7      MisBP:2   MisRate:28.57%    MPKI:0.00
PC:1253a     Total:95      MisBP:2   MisRate:2.11%    MPKI:0.00
PC:13354     Total:1039      MisBP:2   MisRate:0.19%    MPKI:0.00
PC:1666e     Total:10      MisBP:2   MisRate:20.00%    MPKI:0.00
PC:153d2     Total:5      MisBP:2   MisRate:40.00%    MPKI:0.00
PC:15934     Total:22342      MisBP:2   MisRate:0.01%    MPKI:0.00
PC:29818     Total:36      MisBP:3   MisRate:8.33%    MPKI:0.00
PC:11cc6     Total:65547      MisBP:3   MisRate:0.00%    MPKI:0.00
PC:165be     Total:15      MisBP:3   MisRate:20.00%    MPKI:0.00
PC:16606     Total:12669      MisBP:3   MisRate:0.02%    MPKI:0.00
PC:166b6     Total:35      MisBP:3   MisRate:8.57%    MPKI:0.00
PC:111de     Total:38      MisBP:3   MisRate:7.89%    MPKI:0.00
PC:11bb4     Total:65551      MisBP:3   MisRate:0.00%    MPKI:0.00
PC:166f0     Total:5      MisBP:3   MisRate:60.00%    MPKI:0.00
PC:1104e     Total:173      MisBP:3   MisRate:1.73%    MPKI:0.00
PC:16802     Total:3      MisBP:3   MisRate:100.00%    MPKI:0.00
PC:12f14     Total:13      MisBP:3   MisRate:23.08%    MPKI:0.00
PC:141a8     Total:221      MisBP:4   MisRate:1.81%    MPKI:0.00
PC:18dc0     Total:3826      MisBP:4   MisRate:0.10%    MPKI:0.00
PC:11d8a     Total:259      MisBP:4   MisRate:1.54%    MPKI:0.00
PC:15576     Total:21933      MisBP:4   MisRate:0.02%    MPKI:0.00
PC:13382     Total:198      MisBP:4   MisRate:2.02%    MPKI:0.00
PC:18de2     Total:50      MisBP:4   MisRate:8.00%    MPKI:0.00
PC:11c50     Total:175094      MisBP:4   MisRate:0.00%    MPKI:0.00
PC:151f8     Total:6      MisBP:4   MisRate:66.67%    MPKI:0.00
PC:18fd0     Total:5      MisBP:4   MisRate:80.00%    MPKI:0.00
PC:14bde     Total:136      MisBP:4   MisRate:2.94%    MPKI:0.00
PC:151f0     Total:9      MisBP:4   MisRate:44.44%    MPKI:0.00
PC:140d2     Total:1557      MisBP:4   MisRate:0.26%    MPKI:0.00
PC:167fa     Total:12      MisBP:4   MisRate:33.33%    MPKI:0.00
PC:12e6c     Total:129081      MisBP:4   MisRate:0.00%    MPKI:0.00
PC:121be     Total:900      MisBP:4   MisRate:0.44%    MPKI:0.00
PC:14162     Total:258      MisBP:5   MisRate:1.94%    MPKI:0.00
PC:153cc     Total:29      MisBP:5   MisRate:17.24%    MPKI:0.00
PC:166a8     Total:34      MisBP:5   MisRate:14.71%    MPKI:0.00
PC:152aa     Total:10      MisBP:5   MisRate:50.00%    MPKI:0.00
PC:293d0     Total:193      MisBP:5   MisRate:2.59%    MPKI:0.00
PC:29354     Total:35      MisBP:5   MisRate:14.29%    MPKI:0.00
PC:128f6     Total:236      MisBP:5   MisRate:2.12%    MPKI:0.00
PC:11d58     Total:175090      MisBP:5   MisRate:0.00%    MPKI:0.00
PC:16768     Total:13      MisBP:6   MisRate:46.15%    MPKI:0.00
PC:166e8     Total:64      MisBP:6   MisRate:9.38%    MPKI:0.00
PC:154fa     Total:33      MisBP:6   MisRate:18.18%    MPKI:0.00
PC:11d9a     Total:18      MisBP:6   MisRate:33.33%    MPKI:0.00
PC:14bf6     Total:134      MisBP:6   MisRate:4.48%    MPKI:0.00
PC:16760     Total:9941      MisBP:6   MisRate:0.06%    MPKI:0.00
PC:13346     Total:206      MisBP:7   MisRate:3.40%    MPKI:0.00
PC:18e28     Total:300      MisBP:7   MisRate:2.33%    MPKI:0.00
PC:11c90     Total:46      MisBP:7   MisRate:15.22%    MPKI:0.00
PC:1530e     Total:659      MisBP:7   MisRate:1.06%    MPKI:0.00
PC:10158     Total:732      MisBP:7   MisRate:0.96%    MPKI:0.00
PC:3975a     Total:11      MisBP:7   MisRate:63.64%    MPKI:0.00
PC:3970e     Total:13      MisBP:8   MisRate:61.54%    MPKI:0.00
PC:125f6     Total:329857      MisBP:8   MisRate:0.00%    MPKI:0.00
PC:167f2     Total:1618      MisBP:8   MisRate:0.49%    MPKI:0.00
PC:1697a     Total:485      MisBP:8   MisRate:1.65%    MPKI:0.00
PC:153a8     Total:89      MisBP:8   MisRate:8.99%    MPKI:0.00
PC:16644     Total:728      MisBP:8   MisRate:1.10%    MPKI:0.00
PC:12efc     Total:195      MisBP:8   MisRate:4.10%    MPKI:0.00
PC:151e8     Total:823      MisBP:9   MisRate:1.09%    MPKI:0.00
PC:1208c     Total:548      MisBP:9   MisRate:1.64%    MPKI:0.00
PC:16854     Total:10479      MisBP:9   MisRate:0.09%    MPKI:0.00
PC:18e8c     Total:101      MisBP:9   MisRate:8.91%    MPKI:0.00
PC:29654     Total:2422      MisBP:9   MisRate:0.37%    MPKI:0.00
PC:12e5c     Total:219      MisBP:9   MisRate:4.11%    MPKI:0.00
PC:18d92     Total:2814      MisBP:9   MisRate:0.32%    MPKI:0.00
PC:12eae     Total:40      MisBP:10   MisRate:25.00%    MPKI:0.00
PC:12e56     Total:192      MisBP:10   MisRate:5.21%    MPKI:0.00
PC:15292     Total:162      MisBP:10   MisRate:6.17%    MPKI:0.00
PC:18c2e     Total:6573      MisBP:10   MisRate:0.15%    MPKI:0.00
PC:12eda     Total:288      MisBP:10   MisRate:3.47%    MPKI:0.00
PC:1593e     Total:21957      MisBP:11   MisRate:0.05%    MPKI:0.00
PC:166c4     Total:63      MisBP:11   MisRate:17.46%    MPKI:0.00
PC:11b12     Total:156095      MisBP:12   MisRate:0.01%    MPKI:0.00
PC:154cc     Total:32      MisBP:12   MisRate:37.50%    MPKI:0.00
PC:15444     Total:69      MisBP:13   MisRate:18.84%    MPKI:0.00
PC:130c8     Total:278738      MisBP:13   MisRate:0.00%    MPKI:0.00
PC:15302     Total:780      MisBP:15   MisRate:1.92%    MPKI:0.00
PC:361f6     Total:211      MisBP:15   MisRate:7.11%    MPKI:0.00
PC:14f16     Total:11561      MisBP:18   MisRate:0.16%    MPKI:0.00
PC:14168     Total:256      MisBP:19   MisRate:7.42%    MPKI:0.00
PC:18e16     Total:3994      MisBP:20   MisRate:0.50%    MPKI:0.00
PC:153c2     Total:2913      MisBP:21   MisRate:0.72%    MPKI:0.00
PC:293c4     Total:219      MisBP:21   MisRate:9.59%    MPKI:0.00
PC:297a0     Total:48      MisBP:21   MisRate:43.75%    MPKI:0.00
PC:120e6     Total:594      MisBP:22   MisRate:3.70%    MPKI:0.00
PC:14bb6     Total:304      MisBP:22   MisRate:7.24%    MPKI:0.00
PC:166e2     Total:307      MisBP:22   MisRate:7.17%    MPKI:0.00
PC:1511c     Total:1134216      MisBP:22   MisRate:0.00%    MPKI:0.00
PC:1414a     Total:246      MisBP:23   MisRate:9.35%    MPKI:0.00
PC:16692     Total:645      MisBP:24   MisRate:3.72%    MPKI:0.00
PC:29404     Total:193      MisBP:26   MisRate:13.47%    MPKI:0.00
PC:1308a     Total:48376      MisBP:26   MisRate:0.05%    MPKI:0.00
PC:166d4     Total:326      MisBP:27   MisRate:8.28%    MPKI:0.00
PC:29804     Total:2162      MisBP:27   MisRate:1.25%    MPKI:0.00
PC:12140     Total:564      MisBP:28   MisRate:4.96%    MPKI:0.00
PC:11e2a     Total:58      MisBP:34   MisRate:58.62%    MPKI:0.00
PC:12ea0     Total:129083      MisBP:34   MisRate:0.03%    MPKI:0.00
PC:18c4e     Total:237      MisBP:35   MisRate:14.77%    MPKI:0.00
PC:18bf8     Total:5402      MisBP:39   MisRate:0.72%    MPKI:0.00
PC:18de0     Total:3945      MisBP:40   MisRate:1.01%    MPKI:0.00
PC:1227c     Total:141822      MisBP:41   MisRate:0.03%    MPKI:0.00
PC:18ca4     Total:5610      MisBP:41   MisRate:0.73%    MPKI:0.00
PC:1668c     Total:635      MisBP:43   MisRate:6.77%    MPKI:0.00
PC:12180     Total:1214      MisBP:45   MisRate:3.71%    MPKI:0.00
PC:18b64     Total:4991      MisBP:51   MisRate:1.02%    MPKI:0.00
PC:15440     Total:310      MisBP:52   MisRate:16.77%    MPKI:0.00
PC:11e26     Total:2640      MisBP:54   MisRate:2.05%    MPKI:0.00
PC:167cc     Total:461      MisBP:55   MisRate:11.93%    MPKI:0.00
PC:11dfc     Total:2614      MisBP:61   MisRate:2.33%    MPKI:0.00
PC:121dc     Total:881      MisBP:62   MisRate:7.04%    MPKI:0.00
PC:18cc4     Total:143      MisBP:62   MisRate:43.36%    MPKI:0.00
PC:12182     Total:154      MisBP:90   MisRate:58.44%    MPKI:0.00
PC:18e84     Total:10181      MisBP:96   MisRate:0.94%    MPKI:0.00
PC:12224     Total:452      MisBP:113   MisRate:25.00%    MPKI:0.00
PC:18c62     Total:26337      MisBP:167   MisRate:0.63%    MPKI:0.00
PC:29454     Total:761      MisBP:174   MisRate:22.86%    MPKI:0.00
PC:18cd8     Total:25462      MisBP:181   MisRate:0.71%    MPKI:0.00
PC:167e4     Total:1501      MisBP:181   MisRate:12.06%    MPKI:0.00
PC:1221c     Total:654941      MisBP:203   MisRate:0.03%    MPKI:0.00
PC:130b6     Total:952423      MisBP:209   MisRate:0.02%    MPKI:0.00
PC:12da0     Total:18563      MisBP:246   MisRate:1.33%    MPKI:0.00
PC:167b8     Total:1537      MisBP:255   MisRate:16.59%    MPKI:0.00
PC:11f7a     Total:135460      MisBP:273   MisRate:0.20%    MPKI:0.00
PC:18d84     Total:3032      MisBP:301   MisRate:9.93%    MPKI:0.00
PC:12d9c     Total:47956      MisBP:315   MisRate:0.66%    MPKI:0.00
PC:18bce     Total:5361      MisBP:329   MisRate:6.14%    MPKI:0.00
PC:18cfe     Total:23978      MisBP:342   MisRate:1.43%    MPKI:0.00
PC:1211e     Total:654982      MisBP:342   MisRate:0.05%    MPKI:0.00
PC:1207e     Total:103233      MisBP:362   MisRate:0.35%    MPKI:0.00
PC:11e60     Total:101555      MisBP:367   MisRate:0.36%    MPKI:0.00
PC:18b5a     Total:4842      MisBP:452   MisRate:9.33%    MPKI:0.00
PC:120ce     Total:73008      MisBP:480   MisRate:0.66%    MPKI:0.00
PC:121ae     Total:78148      MisBP:480   MisRate:0.61%    MPKI:0.00
PC:11e18     Total:4670      MisBP:569   MisRate:12.18%    MPKI:0.00
PC:12178     Total:599570      MisBP:678   MisRate:0.11%    MPKI:0.00
PC:18d68     Total:5788      MisBP:933   MisRate:16.12%    MPKI:0.00
PC:18c88     Total:23726      MisBP:1129   MisRate:4.76%    MPKI:0.00
PC:11e7e     Total:49447      MisBP:1966   MisRate:3.98%    MPKI:0.01
PC:18c5a     Total:22454      MisBP:2003   MisRate:8.92%    MPKI:0.01
PC:16740     Total:8978      MisBP:2091   MisRate:23.29%    MPKI:0.01
PC:165e6     Total:11571      MisBP:2124   MisRate:18.36%    MPKI:0.01
PC:16752     Total:11911      MisBP:2479   MisRate:20.81%    MPKI:0.01
PC:18cd0     Total:23362      MisBP:2622   MisRate:11.22%    MPKI:0.01
PC:14a5a     Total:302652      MisBP:2636   MisRate:0.87%    MPKI:0.01
PC:18bec     Total:40654      MisBP:2840   MisRate:6.99%    MPKI:0.01
PC:18dd0     Total:111884      MisBP:3041   MisRate:2.72%    MPKI:0.01
PC:165f8     Total:36364      MisBP:3059   MisRate:8.41%    MPKI:0.01
PC:11aee     Total:185886      MisBP:4329   MisRate:2.33%    MPKI:0.01
PC:11ada     Total:215532      MisBP:4728   MisRate:2.19%    MPKI:0.02
PC:123d8     Total:83179      MisBP:5174   MisRate:6.22%    MPKI:0.02
PC:12430     Total:28011      MisBP:5462   MisRate:19.50%    MPKI:0.02
PC:12476     Total:31297      MisBP:5490   MisRate:17.54%    MPKI:0.02
PC:11ac4     Total:261809      MisBP:5583   MisRate:2.13%    MPKI:0.02
PC:11f64     Total:50147      MisBP:5797   MisRate:11.56%    MPKI:0.02
PC:123f8     Total:31601      MisBP:5946   MisRate:18.82%    MPKI:0.02
PC:11e6a     Total:101412      MisBP:6964   MisRate:6.87%    MPKI:0.02
PC:11aae     Total:334565      MisBP:7764   MisRate:2.32%    MPKI:0.03
PC:124aa     Total:35501      MisBP:8734   MisRate:24.60%    MPKI:0.03
PC:11f08     Total:60647      MisBP:9323   MisRate:15.37%    MPKI:0.03
PC:11a98     Total:398900      MisBP:10261   MisRate:2.57%    MPKI:0.03
PC:11ae6     Total:205133      MisBP:10285   MisRate:5.01%    MPKI:0.03
PC:12242     Total:74452      MisBP:10976   MisRate:14.74%    MPKI:0.04
PC:13086     Total:705367      MisBP:11634   MisRate:1.65%    MPKI:0.04
PC:11ad0     Total:247281      MisBP:13103   MisRate:5.30%    MPKI:0.04
PC:11a82     Total:493090      MisBP:13818   MisRate:2.80%    MPKI:0.04
PC:150d8     Total:138342      MisBP:15018   MisRate:10.86%    MPKI:0.05
PC:12418     Total:434370      MisBP:17378   MisRate:4.00%    MPKI:0.06
PC:11a6c     Total:608086      MisBP:18116   MisRate:2.98%    MPKI:0.06
PC:11aba     Total:309141      MisBP:19479   MisRate:6.30%    MPKI:0.06
PC:12030     Total:2414589      MisBP:19810   MisRate:0.82%    MPKI:0.06
PC:12454     Total:343603      MisBP:21321   MisRate:6.21%    MPKI:0.07
PC:11aa4     Total:355863      MisBP:21588   MisRate:6.07%    MPKI:0.07
PC:1546e     Total:256711      MisBP:21900   MisRate:8.53%    MPKI:0.07
PC:15402     Total:285411      MisBP:21935   MisRate:7.69%    MPKI:0.07
PC:11ec8     Total:117233      MisBP:23549   MisRate:20.09%    MPKI:0.08
PC:123ba     Total:415716      MisBP:26359   MisRate:6.34%    MPKI:0.09
PC:11a8e     Total:437810      MisBP:27245   MisRate:6.22%    MPKI:0.09
PC:122f2     Total:660750      MisBP:28419   MisRate:4.30%    MPKI:0.09
PC:11a78     Total:527143      MisBP:29626   MisRate:5.62%    MPKI:0.10
PC:1234a     Total:546841      MisBP:29902   MisRate:5.47%    MPKI:0.10
PC:11a5e     Total:641615      MisBP:31090   MisRate:4.85%    MPKI:0.10
PC:12d8a     Total:339363      MisBP:31333   MisRate:9.23%    MPKI:0.10
PC:11a4a     Total:823287      MisBP:34171   MisRate:4.15%    MPKI:0.11
PC:12102     Total:629053      MisBP:34376   MisRate:5.46%    MPKI:0.11
PC:11f5c     Total:3879295      MisBP:34461   MisRate:0.89%    MPKI:0.11
PC:1215e     Total:578991      MisBP:38498   MisRate:6.65%    MPKI:0.12
PC:1236c     Total:707140      MisBP:39168   MisRate:5.54%    MPKI:0.13
PC:123c4     Total:98302      MisBP:39732   MisRate:40.42%    MPKI:0.13
PC:150e2     Total:318942      MisBP:44213   MisRate:13.86%    MPKI:0.14
PC:122be     Total:626166      MisBP:44926   MisRate:7.17%    MPKI:0.14
PC:12314     Total:766443      MisBP:46216   MisRate:6.03%    MPKI:0.15
PC:130c2     Total:940064      MisBP:46227   MisRate:4.92%    MPKI:0.15
PC:11a20     Total:890034      MisBP:50522   MisRate:5.68%    MPKI:0.16
PC:11a3a     Total:912524      MisBP:52080   MisRate:5.71%    MPKI:0.17
PC:11a28     Total:841700      MisBP:56843   MisRate:6.75%    MPKI:0.18
PC:11a04     Total:1016931      MisBP:59286   MisRate:5.83%    MPKI:0.19
PC:1508e     Total:292320      MisBP:62229   MisRate:21.29%    MPKI:0.20
PC:12250     Total:435344      MisBP:68852   MisRate:15.82%    MPKI:0.22
PC:119fc     Total:1150845      MisBP:75666   MisRate:6.57%    MPKI:0.24
PC:119f4     Total:1222209      MisBP:76736   MisRate:6.28%    MPKI:0.25
PC:119e4     Total:1474087      MisBP:81319   MisRate:5.52%    MPKI:0.26
PC:11a0c     Total:964478      MisBP:81659   MisRate:8.47%    MPKI:0.26
PC:1508c     Total:1049932      MisBP:123650   MisRate:11.78%    MPKI:0.40
PC:14a2e     Total:582764      MisBP:123790   MisRate:21.24%    MPKI:0.40
PC:150f4     Total:5223417      MisBP:140623   MisRate:2.69%    MPKI:0.45
PC:119dc     Total:1706888      MisBP:145796   MisRate:8.54%    MPKI:0.47
PC:119ec     Total:1343455      MisBP:153977   MisRate:11.46%    MPKI:0.50
PC:12014     Total:1258483      MisBP:157108   MisRate:12.48%    MPKI:0.51
PC:12042     Total:1612400      MisBP:170699   MisRate:10.59%    MPKI:0.55
PC:119d4     Total:1884244      MisBP:184959   MisRate:9.82%    MPKI:0.60
PC:1238c     Total:923984      MisBP:203357   MisRate:22.01%    MPKI:0.66
PC:12334     Total:1060852      MisBP:221280   MisRate:20.86%    MPKI:0.71
PC:122dc     Total:971295      MisBP:233884   MisRate:24.08%    MPKI:0.75
PC:119cc     Total:2287841      MisBP:239204   MisRate:10.46%    MPKI:0.77
PC:119b6     Total:3151828      MisBP:247875   MisRate:7.86%    MPKI:0.80
PC:11f40     Total:3554386      MisBP:280598   MisRate:7.89%    MPKI:0.91
PC:12040     Total:2506925      MisBP:311717   MisRate:12.43%    MPKI:1.01
Totfetch:589321660  TotInsts:310000001  TotMis : inf%   MPKI : 14.81
=============finish sim!!!!!!=============
Done running SimPoint!
