Global frequency set at 1000000000000 ticks per second
 Register [printBranch()] ExitCallback !!!!!!! 
gem5 Simulator System.  https://www.gem5.org
gem5 is copyrighted software; use the --copyright option for details.

gem5 version 22.0.0.2
gem5 compiled Sep  7 2022 00:42:18
gem5 started Sep  7 2022 03:37:23
gem5 executing on a100, pid 2765540
command line: /data/zxf/gem5/gem5-prof/build/ARM/gem5.fast --outdir=/data/zxf/checkpoint/spec2006/401.bzip2/prof/bzip2_ckp_7 /data/zxf/gem5/gem5-prof/configs/example/se.py --cpu-type O3CPU --cpu-clock 1GHz --num-cpu 1 --l1d-hwp-type=BOPPrefetcher --caches --l2cache --l1i_size 32kB --l1d_size 32kB --l2_size 1MB --l1i_assoc 8 --l1d_assoc 8 --l2_assoc 16 --cacheline_size 64 --mem-type DDR3_2133_8x8 --mem-size 16GB --restore-simpoint-checkpoint -r 7 --checkpoint-dir /data/zxf/checkpoint/spec2006/401.bzip2/ckpt -c bzip2_base.gcc41-64bit -o 'input.source 280'

info: Standard input is not a terminal, disabling listeners.
Resuming from /data/zxf/checkpoint/spec2006/401.bzip2/ckpt/cpt.simpoint_06_inst_132890000000_weight_0.070236_interval_300000000_warmup_10000000
Resuming from SimPoint #6, start_inst:132890000000, weight:0.070236, interval:300000000, warmup:10000000
Switch at curTick count:10000
Switched CPUS @ tick 82009762380500
[(<m5.objects.ArmCPU.ArmAtomicSimpleCPU object at 0x7ff93f963bb0>, <m5.objects.ArmCPU.ArmO3CPU object at 0x7ff93f97be20>)]
switching cpus



+++++++++++++++++++++++++zxf print simpoint+++++++++++++++++++++++++++
Warmed up! Dumping and resetting stats!


=============start sim!!!!!!=============
PC:17114     Total:12      MisBP:0   MisRate:0.00%    MPKI:0.00
PC:16dba     Total:401      MisBP:0   MisRate:0.00%    MPKI:0.00
PC:29680     Total:605      MisBP:0   MisRate:0.00%    MPKI:0.00
PC:16fe0     Total:6      MisBP:0   MisRate:0.00%    MPKI:0.00
PC:13bf4     Total:3185539      MisBP:0   MisRate:0.00%    MPKI:0.00
PC:29684     Total:605      MisBP:0   MisRate:0.00%    MPKI:0.00
PC:10168     Total:109      MisBP:0   MisRate:0.00%    MPKI:0.00
PC:16fe4     Total:6      MisBP:0   MisRate:0.00%    MPKI:0.00
PC:297a4     Total:173      MisBP:0   MisRate:0.00%    MPKI:0.00
PC:297a8     Total:173      MisBP:0   MisRate:0.00%    MPKI:0.00
PC:17108     Total:12      MisBP:0   MisRate:0.00%    MPKI:0.00
PC:297ac     Total:345      MisBP:0   MisRate:0.00%    MPKI:0.00
PC:1710c     Total:12      MisBP:0   MisRate:0.00%    MPKI:0.00
PC:297b0     Total:344      MisBP:0   MisRate:0.00%    MPKI:0.00
PC:297b4     Total:172      MisBP:0   MisRate:0.00%    MPKI:0.00
PC:145fc     Total:570      MisBP:0   MisRate:0.00%    MPKI:0.00
PC:111d4     Total:667      MisBP:0   MisRate:0.00%    MPKI:0.00
PC:16de6     Total:3178      MisBP:0   MisRate:0.00%    MPKI:0.00
PC:179d2     Total:22      MisBP:0   MisRate:0.00%    MPKI:0.00
PC:179d4     Total:22      MisBP:0   MisRate:0.00%    MPKI:0.00
PC:179d6     Total:22      MisBP:0   MisRate:0.00%    MPKI:0.00
PC:13550     Total:3      MisBP:0   MisRate:0.00%    MPKI:0.00
PC:184d8     Total:449082      MisBP:0   MisRate:0.00%    MPKI:0.00
PC:1355c     Total:1966      MisBP:0   MisRate:0.00%    MPKI:0.00
PC:10f72     Total:4434      MisBP:0   MisRate:0.00%    MPKI:0.00
PC:361c8     Total:262      MisBP:0   MisRate:0.00%    MPKI:0.00
PC:184e0     Total:448432      MisBP:0   MisRate:0.00%    MPKI:0.00
PC:13564     Total:1966      MisBP:0   MisRate:0.00%    MPKI:0.00
PC:184e8     Total:4438950      MisBP:0   MisRate:0.00%    MPKI:0.00
PC:29760     Total:557      MisBP:0   MisRate:0.00%    MPKI:0.00
PC:12b6c     Total:3397      MisBP:0   MisRate:0.00%    MPKI:0.00
PC:11044     Total:1000      MisBP:0   MisRate:0.00%    MPKI:0.00
PC:1877e     Total:40609      MisBP:0   MisRate:0.00%    MPKI:0.00
PC:29754     Total:561      MisBP:0   MisRate:0.00%    MPKI:0.00
PC:13806     Total:3      MisBP:0   MisRate:0.00%    MPKI:0.00
PC:11048     Total:999      MisBP:0   MisRate:0.00%    MPKI:0.00
PC:29758     Total:561      MisBP:0   MisRate:0.00%    MPKI:0.00
PC:1380c     Total:3      MisBP:0   MisRate:0.00%    MPKI:0.00
PC:18788     Total:187215      MisBP:0   MisRate:0.00%    MPKI:0.00
PC:2975c     Total:561      MisBP:0   MisRate:0.00%    MPKI:0.00
PC:1380e     Total:3      MisBP:0   MisRate:0.00%    MPKI:0.00
PC:11050     Total:171      MisBP:0   MisRate:0.00%    MPKI:0.00
PC:1878a     Total:187215      MisBP:0   MisRate:0.00%    MPKI:0.00
PC:1356c     Total:1925      MisBP:0   MisRate:0.00%    MPKI:0.00
PC:13812     Total:3      MisBP:0   MisRate:0.00%    MPKI:0.00
PC:11054     Total:171      MisBP:0   MisRate:0.00%    MPKI:0.00
PC:1878e     Total:187215      MisBP:0   MisRate:0.00%    MPKI:0.00
PC:12b7e     Total:5      MisBP:0   MisRate:0.00%    MPKI:0.00
PC:13832     Total:3      MisBP:0   MisRate:0.00%    MPKI:0.00
PC:187ae     Total:85      MisBP:0   MisRate:0.00%    MPKI:0.00
PC:29780     Total:557      MisBP:0   MisRate:0.00%    MPKI:0.00
PC:170e0     Total:1      MisBP:0   MisRate:0.00%    MPKI:0.00
PC:13836     Total:3      MisBP:0   MisRate:0.00%    MPKI:0.00
PC:187b2     Total:3      MisBP:0   MisRate:0.00%    MPKI:0.00
PC:29784     Total:557      MisBP:0   MisRate:0.00%    MPKI:0.00
PC:170e4     Total:1      MisBP:0   MisRate:0.00%    MPKI:0.00
PC:111a8     Total:1041      MisBP:0   MisRate:0.00%    MPKI:0.00
PC:16d84     Total:4269      MisBP:0   MisRate:0.00%    MPKI:0.00
PC:169b4     Total:241      MisBP:0   MisRate:0.00%    MPKI:0.00
PC:3621c     Total:14      MisBP:0   MisRate:0.00%    MPKI:0.00
PC:18534     Total:1      MisBP:0   MisRate:0.00%    MPKI:0.00
PC:135b8     Total:816660      MisBP:0   MisRate:0.00%    MPKI:0.00
PC:29360     Total:280      MisBP:0   MisRate:0.00%    MPKI:0.00
PC:293cc     Total:671      MisBP:0   MisRate:0.00%    MPKI:0.00
PC:293d4     Total:87      MisBP:0   MisRate:0.00%    MPKI:0.00
PC:293d8     Total:87      MisBP:0   MisRate:0.00%    MPKI:0.00
PC:293ec     Total:174      MisBP:0   MisRate:0.00%    MPKI:0.00
PC:293f4     Total:174      MisBP:0   MisRate:0.00%    MPKI:0.00
PC:29400     Total:733      MisBP:0   MisRate:0.00%    MPKI:0.00
PC:29424     Total:2354      MisBP:0   MisRate:0.00%    MPKI:0.00
PC:1dc00     Total:2      MisBP:0   MisRate:0.00%    MPKI:0.00
PC:169b0     Total:241      MisBP:0   MisRate:0.00%    MPKI:0.00
PC:29428     Total:2345      MisBP:0   MisRate:0.00%    MPKI:0.00
PC:16d88     Total:4273      MisBP:0   MisRate:0.00%    MPKI:0.00
PC:29434     Total:2343      MisBP:0   MisRate:0.00%    MPKI:0.00
PC:16d94     Total:439      MisBP:0   MisRate:0.00%    MPKI:0.00
PC:29530     Total:7959      MisBP:0   MisRate:0.00%    MPKI:0.00
PC:2953c     Total:7958      MisBP:0   MisRate:0.00%    MPKI:0.00
PC:29554     Total:7931      MisBP:0   MisRate:0.00%    MPKI:0.00
PC:29564     Total:7929      MisBP:0   MisRate:0.00%    MPKI:0.00
PC:14706     Total:96      MisBP:0   MisRate:0.00%    MPKI:0.00
PC:16ec4     Total:4719      MisBP:0   MisRate:0.00%    MPKI:0.00
PC:29568     Total:7929      MisBP:0   MisRate:0.00%    MPKI:0.00
PC:1470a     Total:3821      MisBP:0   MisRate:0.00%    MPKI:0.00
PC:16ec8     Total:4719      MisBP:0   MisRate:0.00%    MPKI:0.00
PC:13580     Total:1865      MisBP:0   MisRate:0.00%    MPKI:0.00
PC:146c0     Total:317      MisBP:0   MisRate:0.00%    MPKI:0.00
PC:13740     Total:1      MisBP:0   MisRate:0.00%    MPKI:0.00
PC:10f82     Total:3542      MisBP:0   MisRate:0.00%    MPKI:0.00
PC:146c4     Total:317      MisBP:0   MisRate:0.00%    MPKI:0.00
PC:10f86     Total:3538      MisBP:0   MisRate:0.00%    MPKI:0.00
PC:361d8     Total:188      MisBP:0   MisRate:0.00%    MPKI:0.00
PC:13574     Total:1925      MisBP:0   MisRate:0.00%    MPKI:0.00
PC:184f4     Total:4181488      MisBP:0   MisRate:0.00%    MPKI:0.00
PC:13578     Total:1925      MisBP:0   MisRate:0.00%    MPKI:0.00
PC:146cc     Total:146      MisBP:0   MisRate:0.00%    MPKI:0.00
PC:10f8e     Total:3533      MisBP:0   MisRate:0.00%    MPKI:0.00
PC:361e4     Total:184      MisBP:0   MisRate:0.00%    MPKI:0.00
PC:184fc     Total:11988      MisBP:0   MisRate:0.00%    MPKI:0.00
PC:29750     Total:561      MisBP:0   MisRate:0.00%    MPKI:0.00
PC:361e8     Total:184      MisBP:0   MisRate:0.00%    MPKI:0.00
PC:13584     Total:1865      MisBP:0   MisRate:0.00%    MPKI:0.00
PC:13588     Total:1865      MisBP:0   MisRate:0.00%    MPKI:0.00
PC:16998     Total:2528      MisBP:0   MisRate:0.00%    MPKI:0.00
PC:1699c     Total:252      MisBP:0   MisRate:0.00%    MPKI:0.00
PC:10fb6     Total:1801      MisBP:0   MisRate:0.00%    MPKI:0.00
PC:169a0     Total:251      MisBP:0   MisRate:0.00%    MPKI:0.00
PC:17c0a     Total:16114      MisBP:0   MisRate:0.00%    MPKI:0.00
PC:135a4     Total:211911      MisBP:0   MisRate:0.00%    MPKI:0.00
PC:169a8     Total:251      MisBP:0   MisRate:0.00%    MPKI:0.00
PC:29244     Total:19      MisBP:0   MisRate:0.00%    MPKI:0.00
PC:17c12     Total:16103      MisBP:0   MisRate:0.00%    MPKI:0.00
PC:169ac     Total:241      MisBP:0   MisRate:0.00%    MPKI:0.00
PC:10eee     Total:177      MisBP:0   MisRate:0.00%    MPKI:0.00
PC:29560     Total:7929      MisBP:0   MisRate:0.00%    MPKI:0.00
PC:16a5a     Total:139      MisBP:0   MisRate:0.00%    MPKI:0.00
PC:17cc4     Total:54      MisBP:0   MisRate:0.00%    MPKI:0.00
PC:13f08     Total:62      MisBP:0   MisRate:0.00%    MPKI:0.00
PC:16a5e     Total:139      MisBP:0   MisRate:0.00%    MPKI:0.00
PC:13f0c     Total:2      MisBP:0   MisRate:0.00%    MPKI:0.00
PC:16a62     Total:138      MisBP:0   MisRate:0.00%    MPKI:0.00
PC:13f10     Total:12      MisBP:0   MisRate:0.00%    MPKI:0.00
PC:16aa4     Total:17      MisBP:0   MisRate:0.00%    MPKI:0.00
PC:16aa6     Total:17      MisBP:0   MisRate:0.00%    MPKI:0.00
PC:18f7a     Total:940      MisBP:0   MisRate:0.00%    MPKI:0.00
PC:13f54     Total:820      MisBP:0   MisRate:0.00%    MPKI:0.00
PC:16aa8     Total:17      MisBP:0   MisRate:0.00%    MPKI:0.00
PC:10f7e     Total:4352      MisBP:0   MisRate:0.00%    MPKI:0.00
PC:136ac     Total:17      MisBP:0   MisRate:0.00%    MPKI:0.00
PC:111d8     Total:666      MisBP:0   MisRate:0.00%    MPKI:0.00
PC:16dea     Total:14940      MisBP:0   MisRate:0.00%    MPKI:0.00
PC:18ed2     Total:617      MisBP:0   MisRate:0.00%    MPKI:0.00
PC:13f56     Total:819      MisBP:0   MisRate:0.00%    MPKI:0.00
PC:16aaa     Total:17      MisBP:0   MisRate:0.00%    MPKI:0.00
PC:18f7e     Total:420      MisBP:0   MisRate:0.00%    MPKI:0.00
PC:16aac     Total:16      MisBP:0   MisRate:0.00%    MPKI:0.00
PC:10ef2     Total:177      MisBP:0   MisRate:0.00%    MPKI:0.00
PC:136b0     Total:16      MisBP:0   MisRate:0.00%    MPKI:0.00
PC:111dc     Total:665      MisBP:0   MisRate:0.00%    MPKI:0.00
PC:16dee     Total:14933      MisBP:0   MisRate:0.00%    MPKI:0.00
PC:13f5a     Total:818      MisBP:0   MisRate:0.00%    MPKI:0.00
PC:13738     Total:9      MisBP:0   MisRate:0.00%    MPKI:0.00
PC:18eb6     Total:568      MisBP:0   MisRate:0.00%    MPKI:0.00
PC:13f3a     Total:1      MisBP:0   MisRate:0.00%    MPKI:0.00
PC:13770     Total:1      MisBP:0   MisRate:0.00%    MPKI:0.00
PC:10fb2     Total:1818      MisBP:0   MisRate:0.00%    MPKI:0.00
PC:29594     Total:7924      MisBP:0   MisRate:0.00%    MPKI:0.00
PC:14736     Total:1      MisBP:0   MisRate:0.00%    MPKI:0.00
PC:16ef4     Total:67      MisBP:0   MisRate:0.00%    MPKI:0.00
PC:17ba6     Total:23875      MisBP:0   MisRate:0.00%    MPKI:0.00
PC:13f00     Total:29395      MisBP:0   MisRate:0.00%    MPKI:0.00
PC:16a54     Total:150      MisBP:0   MisRate:0.00%    MPKI:0.00
PC:17cbe     Total:45      MisBP:0   MisRate:0.00%    MPKI:0.00
PC:18f28     Total:110      MisBP:0   MisRate:0.00%    MPKI:0.00
PC:13f02     Total:29358      MisBP:0   MisRate:0.00%    MPKI:0.00
PC:16ab0     Total:16      MisBP:0   MisRate:0.00%    MPKI:0.00
PC:10f7a     Total:4426      MisBP:0   MisRate:0.00%    MPKI:0.00
PC:2955c     Total:7931      MisBP:0   MisRate:0.00%    MPKI:0.00
PC:146fe     Total:110      MisBP:0   MisRate:0.00%    MPKI:0.00
PC:16ebc     Total:86      MisBP:0   MisRate:0.00%    MPKI:0.00
PC:17baa     Total:24043      MisBP:0   MisRate:0.00%    MPKI:0.00
PC:13f04     Total:62      MisBP:0   MisRate:0.00%    MPKI:0.00
PC:17bac     Total:23945      MisBP:0   MisRate:0.00%    MPKI:0.00
PC:16a58     Total:150      MisBP:0   MisRate:0.00%    MPKI:0.00
PC:17cc2     Total:54      MisBP:0   MisRate:0.00%    MPKI:0.00
PC:18f2c     Total:109      MisBP:0   MisRate:0.00%    MPKI:0.00
PC:13f06     Total:62      MisBP:0   MisRate:0.00%    MPKI:0.00
PC:1373c     Total:9      MisBP:0   MisRate:0.00%    MPKI:0.00
PC:186b8     Total:4971      MisBP:0   MisRate:0.00%    MPKI:0.00
PC:11034     Total:1045      MisBP:0   MisRate:0.00%    MPKI:0.00
PC:1875e     Total:18      MisBP:0   MisRate:0.00%    MPKI:0.00
PC:11026     Total:1070      MisBP:0   MisRate:0.00%    MPKI:0.00
PC:137e4     Total:4      MisBP:0   MisRate:0.00%    MPKI:0.00
PC:18760     Total:18      MisBP:0   MisRate:0.00%    MPKI:0.00
PC:12b50     Total:3450      MisBP:0   MisRate:0.00%    MPKI:0.00
PC:18764     Total:18      MisBP:0   MisRate:0.00%    MPKI:0.00
PC:12b56     Total:3450      MisBP:0   MisRate:0.00%    MPKI:0.00
PC:11030     Total:1045      MisBP:0   MisRate:0.00%    MPKI:0.00
PC:137ee     Total:4      MisBP:0   MisRate:0.00%    MPKI:0.00
PC:1876a     Total:18      MisBP:0   MisRate:0.00%    MPKI:0.00
PC:137f0     Total:4      MisBP:0   MisRate:0.00%    MPKI:0.00
PC:1876c     Total:18      MisBP:0   MisRate:0.00%    MPKI:0.00
PC:137f2     Total:4      MisBP:0   MisRate:0.00%    MPKI:0.00
PC:137e2     Total:4      MisBP:0   MisRate:0.00%    MPKI:0.00
PC:1876e     Total:18      MisBP:0   MisRate:0.00%    MPKI:0.00
PC:137f6     Total:4      MisBP:0   MisRate:0.00%    MPKI:0.00
PC:18772     Total:18      MisBP:0   MisRate:0.00%    MPKI:0.00
PC:12b62     Total:3418      MisBP:0   MisRate:0.00%    MPKI:0.00
PC:1103a     Total:1044      MisBP:0   MisRate:0.00%    MPKI:0.00
PC:18774     Total:18      MisBP:0   MisRate:0.00%    MPKI:0.00
PC:2974c     Total:561      MisBP:0   MisRate:0.00%    MPKI:0.00
PC:11040     Total:1005      MisBP:0   MisRate:0.00%    MPKI:0.00
PC:137fe     Total:4      MisBP:0   MisRate:0.00%    MPKI:0.00
PC:1877a     Total:45109      MisBP:0   MisRate:0.00%    MPKI:0.00
PC:13800     Total:3      MisBP:0   MisRate:0.00%    MPKI:0.00
PC:11042     Total:1003      MisBP:0   MisRate:0.00%    MPKI:0.00
PC:1877c     Total:45109      MisBP:0   MisRate:0.00%    MPKI:0.00
PC:29524     Total:7960      MisBP:0   MisRate:0.00%    MPKI:0.00
PC:145dc     Total:5716      MisBP:0   MisRate:0.00%    MPKI:0.00
PC:10ef6     Total:177      MisBP:0   MisRate:0.00%    MPKI:0.00
PC:18630     Total:247067      MisBP:0   MisRate:0.00%    MPKI:0.00
PC:136b4     Total:16      MisBP:0   MisRate:0.00%    MPKI:0.00
PC:111e0     Total:152      MisBP:0   MisRate:0.00%    MPKI:0.00
PC:18eda     Total:82      MisBP:0   MisRate:0.00%    MPKI:0.00
PC:13f5e     Total:1      MisBP:0   MisRate:0.00%    MPKI:0.00
PC:16ab2     Total:16      MisBP:0   MisRate:0.00%    MPKI:0.00
PC:13f60     Total:1      MisBP:0   MisRate:0.00%    MPKI:0.00
PC:295bc     Total:7920      MisBP:0   MisRate:0.00%    MPKI:0.00
PC:29520     Total:7966      MisBP:0   MisRate:0.00%    MPKI:0.00
PC:16e80     Total:36      MisBP:0   MisRate:0.00%    MPKI:0.00
PC:1104c     Total:990      MisBP:0   MisRate:0.00%    MPKI:0.00
PC:29570     Total:7929      MisBP:0   MisRate:0.00%    MPKI:0.00
PC:146c6     Total:317      MisBP:0   MisRate:0.00%    MPKI:0.00
PC:16e84     Total:36      MisBP:0   MisRate:0.00%    MPKI:0.00
PC:13bb2     Total:3147386      MisBP:0   MisRate:0.00%    MPKI:0.00
PC:172f0     Total:156      MisBP:0   MisRate:0.00%    MPKI:0.00
PC:29538     Total:7958      MisBP:0   MisRate:0.00%    MPKI:0.00
PC:16ddc     Total:4287      MisBP:0   MisRate:0.00%    MPKI:0.00
PC:1461e     Total:3847      MisBP:0   MisRate:0.00%    MPKI:0.00
PC:16dde     Total:4206      MisBP:0   MisRate:0.00%    MPKI:0.00
PC:14620     Total:3847      MisBP:0   MisRate:0.00%    MPKI:0.00
PC:17a1e     Total:30      MisBP:0   MisRate:0.00%    MPKI:0.00
PC:29408     Total:2356      MisBP:0   MisRate:0.00%    MPKI:0.00
PC:12b4c     Total:3454      MisBP:0   MisRate:0.00%    MPKI:0.00
PC:11024     Total:1073      MisBP:0   MisRate:0.00%    MPKI:0.00
PC:178a6     Total:13      MisBP:0   MisRate:0.00%    MPKI:0.00
PC:29262     Total:2      MisBP:0   MisRate:0.00%    MPKI:0.00
PC:17c30     Total:14770      MisBP:0   MisRate:0.00%    MPKI:0.00
PC:29266     Total:1      MisBP:0   MisRate:0.00%    MPKI:0.00
PC:17c34     Total:14750      MisBP:0   MisRate:0.00%    MPKI:0.00
PC:1015c     Total:113      MisBP:0   MisRate:0.00%    MPKI:0.00
PC:17896     Total:18      MisBP:0   MisRate:0.00%    MPKI:0.00
PC:17898     Total:18      MisBP:0   MisRate:0.00%    MPKI:0.00
PC:10160     Total:113      MisBP:0   MisRate:0.00%    MPKI:0.00
PC:1789a     Total:18      MisBP:0   MisRate:0.00%    MPKI:0.00
PC:10164     Total:113      MisBP:0   MisRate:0.00%    MPKI:0.00
PC:1789e     Total:18      MisBP:0   MisRate:0.00%    MPKI:0.00
PC:178a0     Total:13      MisBP:0   MisRate:0.00%    MPKI:0.00
PC:178a4     Total:13      MisBP:0   MisRate:0.00%    MPKI:0.00
PC:1016c     Total:109      MisBP:0   MisRate:0.00%    MPKI:0.00
PC:17c24     Total:14804      MisBP:0   MisRate:0.00%    MPKI:0.00
PC:178a8     Total:13      MisBP:0   MisRate:0.00%    MPKI:0.00
PC:10170     Total:109      MisBP:0   MisRate:0.00%    MPKI:0.00
PC:178aa     Total:13      MisBP:0   MisRate:0.00%    MPKI:0.00
PC:10174     Total:109      MisBP:0   MisRate:0.00%    MPKI:0.00
PC:178ae     Total:13      MisBP:0   MisRate:0.00%    MPKI:0.00
PC:178b0     Total:13      MisBP:0   MisRate:0.00%    MPKI:0.00
PC:178b4     Total:13      MisBP:0   MisRate:0.00%    MPKI:0.00
PC:1017c     Total:109      MisBP:0   MisRate:0.00%    MPKI:0.00
PC:178b6     Total:13      MisBP:0   MisRate:0.00%    MPKI:0.00
PC:178b8     Total:13      MisBP:0   MisRate:0.00%    MPKI:0.00
PC:10180     Total:95      MisBP:0   MisRate:0.00%    MPKI:0.00
PC:178ba     Total:13      MisBP:0   MisRate:0.00%    MPKI:0.00
PC:178bc     Total:13      MisBP:0   MisRate:0.00%    MPKI:0.00
PC:179aa     Total:22      MisBP:0   MisRate:0.00%    MPKI:0.00
PC:17988     Total:19      MisBP:0   MisRate:0.00%    MPKI:0.00
PC:1798a     Total:19      MisBP:0   MisRate:0.00%    MPKI:0.00
PC:1798c     Total:19      MisBP:0   MisRate:0.00%    MPKI:0.00
PC:1798e     Total:19      MisBP:0   MisRate:0.00%    MPKI:0.00
PC:17990     Total:19      MisBP:0   MisRate:0.00%    MPKI:0.00
PC:17994     Total:19      MisBP:0   MisRate:0.00%    MPKI:0.00
PC:17998     Total:19      MisBP:0   MisRate:0.00%    MPKI:0.00
PC:1799a     Total:19      MisBP:0   MisRate:0.00%    MPKI:0.00
PC:1799e     Total:19      MisBP:0   MisRate:0.00%    MPKI:0.00
PC:179a0     Total:19      MisBP:0   MisRate:0.00%    MPKI:0.00
PC:179a2     Total:19      MisBP:0   MisRate:0.00%    MPKI:0.00
PC:179a4     Total:19      MisBP:0   MisRate:0.00%    MPKI:0.00
PC:179a6     Total:19      MisBP:0   MisRate:0.00%    MPKI:0.00
PC:101a0     Total:94      MisBP:0   MisRate:0.00%    MPKI:0.00
PC:17c00     Total:16284      MisBP:0   MisRate:0.00%    MPKI:0.00
PC:17c04     Total:15998      MisBP:0   MisRate:0.00%    MPKI:0.00
PC:29240     Total:205      MisBP:0   MisRate:0.00%    MPKI:0.00
PC:17c0e     Total:16108      MisBP:0   MisRate:0.00%    MPKI:0.00
PC:29246     Total:9      MisBP:0   MisRate:0.00%    MPKI:0.00
PC:17c14     Total:16102      MisBP:0   MisRate:0.00%    MPKI:0.00
PC:2924a     Total:9      MisBP:0   MisRate:0.00%    MPKI:0.00
PC:17c18     Total:16099      MisBP:0   MisRate:0.00%    MPKI:0.00
PC:2924e     Total:9      MisBP:0   MisRate:0.00%    MPKI:0.00
PC:17c1c     Total:14934      MisBP:0   MisRate:0.00%    MPKI:0.00
PC:29252     Total:9      MisBP:0   MisRate:0.00%    MPKI:0.00
PC:17c20     Total:14817      MisBP:0   MisRate:0.00%    MPKI:0.00
PC:29256     Total:7      MisBP:0   MisRate:0.00%    MPKI:0.00
PC:1783a     Total:32      MisBP:0   MisRate:0.00%    MPKI:0.00
PC:178ce     Total:9      MisBP:0   MisRate:0.00%    MPKI:0.00
PC:178d0     Total:9      MisBP:0   MisRate:0.00%    MPKI:0.00
PC:10198     Total:94      MisBP:0   MisRate:0.00%    MPKI:0.00
PC:178d2     Total:9      MisBP:0   MisRate:0.00%    MPKI:0.00
PC:1019c     Total:188      MisBP:0   MisRate:0.00%    MPKI:0.00
PC:178d6     Total:15      MisBP:0   MisRate:0.00%    MPKI:0.00
PC:17c3a     Total:12632      MisBP:0   MisRate:0.00%    MPKI:0.00
PC:13f28     Total:61314      MisBP:0   MisRate:0.00%    MPKI:0.00
PC:18ea4     Total:64      MisBP:0   MisRate:0.00%    MPKI:0.00
PC:17830     Total:19      MisBP:0   MisRate:0.00%    MPKI:0.00
PC:17832     Total:19      MisBP:0   MisRate:0.00%    MPKI:0.00
PC:17834     Total:18      MisBP:0   MisRate:0.00%    MPKI:0.00
PC:17838     Total:18      MisBP:0   MisRate:0.00%    MPKI:0.00
PC:10194     Total:188      MisBP:0   MisRate:0.00%    MPKI:0.00
PC:1783e     Total:32      MisBP:0   MisRate:0.00%    MPKI:0.00
PC:17874     Total:40      MisBP:0   MisRate:0.00%    MPKI:0.00
PC:17876     Total:40      MisBP:0   MisRate:0.00%    MPKI:0.00
PC:1787c     Total:25      MisBP:0   MisRate:0.00%    MPKI:0.00
PC:17880     Total:24      MisBP:0   MisRate:0.00%    MPKI:0.00
PC:17882     Total:24      MisBP:0   MisRate:0.00%    MPKI:0.00
PC:17884     Total:24      MisBP:0   MisRate:0.00%    MPKI:0.00
PC:17888     Total:24      MisBP:0   MisRate:0.00%    MPKI:0.00
PC:10150     Total:975      MisBP:0   MisRate:0.00%    MPKI:0.00
PC:1788a     Total:24      MisBP:0   MisRate:0.00%    MPKI:0.00
PC:1788c     Total:24      MisBP:0   MisRate:0.00%    MPKI:0.00
PC:10154     Total:972      MisBP:0   MisRate:0.00%    MPKI:0.00
PC:17890     Total:9      MisBP:0   MisRate:0.00%    MPKI:0.00
PC:178f2     Total:26      MisBP:0   MisRate:0.00%    MPKI:0.00
PC:178da     Total:31      MisBP:0   MisRate:0.00%    MPKI:0.00
PC:178dc     Total:31      MisBP:0   MisRate:0.00%    MPKI:0.00
PC:101a8     Total:90      MisBP:0   MisRate:0.00%    MPKI:0.00
PC:178e2     Total:28      MisBP:0   MisRate:0.00%    MPKI:0.00
PC:101ac     Total:90      MisBP:0   MisRate:0.00%    MPKI:0.00
PC:178e6     Total:28      MisBP:0   MisRate:0.00%    MPKI:0.00
PC:178e8     Total:28      MisBP:0   MisRate:0.00%    MPKI:0.00
PC:101b0     Total:90      MisBP:0   MisRate:0.00%    MPKI:0.00
PC:178ea     Total:28      MisBP:0   MisRate:0.00%    MPKI:0.00
PC:101b4     Total:90      MisBP:0   MisRate:0.00%    MPKI:0.00
PC:178ee     Total:28      MisBP:0   MisRate:0.00%    MPKI:0.00
PC:178f0     Total:26      MisBP:0   MisRate:0.00%    MPKI:0.00
PC:101b8     Total:582      MisBP:0   MisRate:0.00%    MPKI:0.00
PC:17984     Total:19      MisBP:0   MisRate:0.00%    MPKI:0.00
PC:101bc     Total:81      MisBP:0   MisRate:0.00%    MPKI:0.00
PC:178f6     Total:3      MisBP:0   MisRate:0.00%    MPKI:0.00
PC:178f8     Total:1      MisBP:0   MisRate:0.00%    MPKI:0.00
PC:178fc     Total:18      MisBP:0   MisRate:0.00%    MPKI:0.00
PC:101c4     Total:269      MisBP:0   MisRate:0.00%    MPKI:0.00
PC:178fe     Total:18      MisBP:0   MisRate:0.00%    MPKI:0.00
PC:178c0     Total:9      MisBP:0   MisRate:0.00%    MPKI:0.00
PC:178c4     Total:9      MisBP:0   MisRate:0.00%    MPKI:0.00
PC:1018c     Total:95      MisBP:0   MisRate:0.00%    MPKI:0.00
PC:178c6     Total:9      MisBP:0   MisRate:0.00%    MPKI:0.00
PC:10190     Total:95      MisBP:0   MisRate:0.00%    MPKI:0.00
PC:178ca     Total:9      MisBP:0   MisRate:0.00%    MPKI:0.00
PC:178cc     Total:9      MisBP:0   MisRate:0.00%    MPKI:0.00
PC:16f60     Total:158      MisBP:0   MisRate:0.00%    MPKI:0.00
PC:16f48     Total:145      MisBP:0   MisRate:0.00%    MPKI:0.00
PC:295ec     Total:7846      MisBP:0   MisRate:0.00%    MPKI:0.00
PC:16f4c     Total:5308      MisBP:0   MisRate:0.00%    MPKI:0.00
PC:295f0     Total:7834      MisBP:0   MisRate:0.00%    MPKI:0.00
PC:16f50     Total:2653      MisBP:0   MisRate:0.00%    MPKI:0.00
PC:295f4     Total:7830      MisBP:0   MisRate:0.00%    MPKI:0.00
PC:295f8     Total:7829      MisBP:0   MisRate:0.00%    MPKI:0.00
PC:295fc     Total:7829      MisBP:0   MisRate:0.00%    MPKI:0.00
PC:16f5c     Total:159      MisBP:0   MisRate:0.00%    MPKI:0.00
PC:137dc     Total:4      MisBP:0   MisRate:0.00%    MPKI:0.00
PC:18758     Total:18      MisBP:0   MisRate:0.00%    MPKI:0.00
PC:1101e     Total:1083      MisBP:0   MisRate:0.00%    MPKI:0.00
PC:29600     Total:7801      MisBP:0   MisRate:0.00%    MPKI:0.00
PC:295e8     Total:7847      MisBP:0   MisRate:0.00%    MPKI:0.00
PC:29604     Total:7801      MisBP:0   MisRate:0.00%    MPKI:0.00
PC:16f64     Total:316      MisBP:0   MisRate:0.00%    MPKI:0.00
PC:29608     Total:7801      MisBP:0   MisRate:0.00%    MPKI:0.00
PC:2960c     Total:7801      MisBP:0   MisRate:0.00%    MPKI:0.00
PC:16f6c     Total:42      MisBP:0   MisRate:0.00%    MPKI:0.00
PC:29610     Total:7801      MisBP:0   MisRate:0.00%    MPKI:0.00
PC:16f70     Total:42      MisBP:0   MisRate:0.00%    MPKI:0.00
PC:29614     Total:7801      MisBP:0   MisRate:0.00%    MPKI:0.00
PC:16f74     Total:42      MisBP:0   MisRate:0.00%    MPKI:0.00
PC:29618     Total:7801      MisBP:0   MisRate:0.00%    MPKI:0.00
PC:16f78     Total:42      MisBP:0   MisRate:0.00%    MPKI:0.00
PC:2961c     Total:7801      MisBP:0   MisRate:0.00%    MPKI:0.00
PC:29620     Total:7800      MisBP:0   MisRate:0.00%    MPKI:0.00
PC:16ee8     Total:71      MisBP:0   MisRate:0.00%    MPKI:0.00
PC:14712     Total:3809      MisBP:0   MisRate:0.00%    MPKI:0.00
PC:186cc     Total:6314      MisBP:0   MisRate:0.00%    MPKI:0.00
PC:10f92     Total:3531      MisBP:0   MisRate:0.00%    MPKI:0.00
PC:29574     Total:7929      MisBP:0   MisRate:0.00%    MPKI:0.00
PC:29578     Total:7929      MisBP:0   MisRate:0.00%    MPKI:0.00
PC:13760     Total:1      MisBP:0   MisRate:0.00%    MPKI:0.00
PC:186dc     Total:382      MisBP:0   MisRate:0.00%    MPKI:0.00
PC:10fa2     Total:229      MisBP:0   MisRate:0.00%    MPKI:0.00
PC:29584     Total:7924      MisBP:0   MisRate:0.00%    MPKI:0.00
PC:14726     Total:7      MisBP:0   MisRate:0.00%    MPKI:0.00
PC:16ee4     Total:71      MisBP:0   MisRate:0.00%    MPKI:0.00
PC:29588     Total:7924      MisBP:0   MisRate:0.00%    MPKI:0.00
PC:1472a     Total:7      MisBP:0   MisRate:0.00%    MPKI:0.00
PC:29624     Total:7800      MisBP:0   MisRate:0.00%    MPKI:0.00
PC:29598     Total:7924      MisBP:0   MisRate:0.00%    MPKI:0.00
PC:1473a     Total:1      MisBP:0   MisRate:0.00%    MPKI:0.00
PC:16ef8     Total:134      MisBP:0   MisRate:0.00%    MPKI:0.00
PC:13778     Total:1      MisBP:0   MisRate:0.00%    MPKI:0.00
PC:186f4     Total:2408      MisBP:0   MisRate:0.00%    MPKI:0.00
PC:10fba     Total:6985      MisBP:0   MisRate:0.00%    MPKI:0.00
PC:2959c     Total:7924      MisBP:0   MisRate:0.00%    MPKI:0.00
PC:1473e     Total:1      MisBP:0   MisRate:0.00%    MPKI:0.00
PC:16efc     Total:67      MisBP:0   MisRate:0.00%    MPKI:0.00
PC:295a4     Total:7923      MisBP:0   MisRate:0.00%    MPKI:0.00
PC:16f04     Total:11      MisBP:0   MisRate:0.00%    MPKI:0.00
PC:295e0     Total:7850      MisBP:0   MisRate:0.00%    MPKI:0.00
PC:295e4     Total:7849      MisBP:0   MisRate:0.00%    MPKI:0.00
PC:1797c     Total:25      MisBP:0   MisRate:0.00%    MPKI:0.00
PC:17bf0     Total:18833      MisBP:0   MisRate:0.00%    MPKI:0.00
PC:17bf4     Total:18797      MisBP:0   MisRate:0.00%    MPKI:0.00
PC:17bf6     Total:18788      MisBP:0   MisRate:0.00%    MPKI:0.00
PC:17bfa     Total:17770      MisBP:0   MisRate:0.00%    MPKI:0.00
PC:17bfe     Total:18001      MisBP:0   MisRate:0.00%    MPKI:0.00
PC:10230     Total:3      MisBP:0   MisRate:0.00%    MPKI:0.00
PC:1796a     Total:30      MisBP:0   MisRate:0.00%    MPKI:0.00
PC:1796c     Total:30      MisBP:0   MisRate:0.00%    MPKI:0.00
PC:1796e     Total:30      MisBP:0   MisRate:0.00%    MPKI:0.00
PC:17972     Total:30      MisBP:0   MisRate:0.00%    MPKI:0.00
PC:17974     Total:25      MisBP:0   MisRate:0.00%    MPKI:0.00
PC:17978     Total:25      MisBP:0   MisRate:0.00%    MPKI:0.00
PC:1797a     Total:25      MisBP:0   MisRate:0.00%    MPKI:0.00
PC:17bec     Total:18843      MisBP:0   MisRate:0.00%    MPKI:0.00
PC:179ae     Total:51      MisBP:0   MisRate:0.00%    MPKI:0.00
PC:179b0     Total:51      MisBP:0   MisRate:0.00%    MPKI:0.00
PC:179b6     Total:39      MisBP:0   MisRate:0.00%    MPKI:0.00
PC:179ba     Total:39      MisBP:0   MisRate:0.00%    MPKI:0.00
PC:179bc     Total:39      MisBP:0   MisRate:0.00%    MPKI:0.00
PC:179be     Total:36      MisBP:0   MisRate:0.00%    MPKI:0.00
PC:179c2     Total:36      MisBP:0   MisRate:0.00%    MPKI:0.00
PC:179c4     Total:36      MisBP:0   MisRate:0.00%    MPKI:0.00
PC:179c6     Total:36      MisBP:0   MisRate:0.00%    MPKI:0.00
PC:179cc     Total:14      MisBP:0   MisRate:0.00%    MPKI:0.00
PC:179ce     Total:1      MisBP:0   MisRate:0.00%    MPKI:0.00
PC:1797e     Total:19      MisBP:0   MisRate:0.00%    MPKI:0.00
PC:17982     Total:19      MisBP:0   MisRate:0.00%    MPKI:0.00
PC:16fa0     Total:41      MisBP:0   MisRate:0.00%    MPKI:0.00
PC:16f84     Total:41      MisBP:0   MisRate:0.00%    MPKI:0.00
PC:29628     Total:7800      MisBP:0   MisRate:0.00%    MPKI:0.00
PC:16f88     Total:41      MisBP:0   MisRate:0.00%    MPKI:0.00
PC:2962c     Total:7800      MisBP:0   MisRate:0.00%    MPKI:0.00
PC:29630     Total:7800      MisBP:0   MisRate:0.00%    MPKI:0.00
PC:16f90     Total:41      MisBP:0   MisRate:0.00%    MPKI:0.00
PC:29634     Total:7800      MisBP:0   MisRate:0.00%    MPKI:0.00
PC:16f94     Total:41      MisBP:0   MisRate:0.00%    MPKI:0.00
PC:29638     Total:7800      MisBP:0   MisRate:0.00%    MPKI:0.00
PC:16f98     Total:41      MisBP:0   MisRate:0.00%    MPKI:0.00
PC:2963c     Total:7800      MisBP:0   MisRate:0.00%    MPKI:0.00
PC:16f9c     Total:41      MisBP:0   MisRate:0.00%    MPKI:0.00
PC:29640     Total:7800      MisBP:0   MisRate:0.00%    MPKI:0.00
PC:111bc     Total:1015      MisBP:0   MisRate:0.00%    MPKI:0.00
PC:13bb4     Total:3144806      MisBP:0   MisRate:0.00%    MPKI:0.00
PC:172f2     Total:156      MisBP:0   MisRate:0.00%    MPKI:0.00
PC:29644     Total:7800      MisBP:0   MisRate:0.00%    MPKI:0.00
PC:16fa4     Total:41      MisBP:0   MisRate:0.00%    MPKI:0.00
PC:13bc4     Total:3123947      MisBP:0   MisRate:0.00%    MPKI:0.00
PC:17302     Total:15      MisBP:0   MisRate:0.00%    MPKI:0.00
PC:16fb4     Total:40      MisBP:0   MisRate:0.00%    MPKI:0.00
PC:29660     Total:606      MisBP:0   MisRate:0.00%    MPKI:0.00
PC:16fc0     Total:31      MisBP:0   MisRate:0.00%    MPKI:0.00
PC:17bde     Total:19214      MisBP:0   MisRate:0.00%    MPKI:0.00
PC:17be0     Total:19202      MisBP:0   MisRate:0.00%    MPKI:0.00
PC:17be4     Total:19201      MisBP:0   MisRate:0.00%    MPKI:0.00
PC:17be8     Total:18978      MisBP:0   MisRate:0.00%    MPKI:0.00
PC:169e2     Total:229      MisBP:0   MisRate:0.00%    MPKI:0.00
PC:361ba     Total:789      MisBP:0   MisRate:0.00%    MPKI:0.00
PC:13556     Total:1966      MisBP:0   MisRate:0.00%    MPKI:0.00
PC:1e5a2     Total:17      MisBP:0   MisRate:0.00%    MPKI:0.00
PC:146aa     Total:3281      MisBP:0   MisRate:0.00%    MPKI:0.00
PC:36226     Total:14      MisBP:0   MisRate:0.00%    MPKI:0.00
PC:135c2     Total:800113      MisBP:0   MisRate:0.00%    MPKI:0.00
PC:13776     Total:1      MisBP:0   MisRate:0.00%    MPKI:0.00
PC:186f2     Total:2408      MisBP:0   MisRate:0.00%    MPKI:0.00
PC:10fb8     Total:1800      MisBP:0   MisRate:0.00%    MPKI:0.00
PC:146f6     Total:1115      MisBP:0   MisRate:0.00%    MPKI:0.00
PC:294f4     Total:716      MisBP:0   MisRate:0.00%    MPKI:0.00
PC:1e58e     Total:37      MisBP:0   MisRate:0.00%    MPKI:0.00
PC:14696     Total:560      MisBP:0   MisRate:0.00%    MPKI:0.00
PC:16e54     Total:11555      MisBP:0   MisRate:0.00%    MPKI:0.00
PC:184d2     Total:458358      MisBP:0   MisRate:0.00%    MPKI:0.00
PC:17c4c     Total:8943      MisBP:0   MisRate:0.00%    MPKI:0.00
PC:18562     Total:16067      MisBP:0   MisRate:0.00%    MPKI:0.00
PC:135e6     Total:1140      MisBP:0   MisRate:0.00%    MPKI:0.00
PC:13e90     Total:181799      MisBP:0   MisRate:0.00%    MPKI:0.00
PC:169fe     Total:196      MisBP:0   MisRate:0.00%    MPKI:0.00
PC:17c68     Total:7539      MisBP:0   MisRate:0.00%    MPKI:0.00
PC:1857e     Total:15530      MisBP:0   MisRate:0.00%    MPKI:0.00
PC:13602     Total:1028      MisBP:0   MisRate:0.00%    MPKI:0.00
PC:293e0     Total:174      MisBP:0   MisRate:0.00%    MPKI:0.00
PC:13eac     Total:180810      MisBP:0   MisRate:0.00%    MPKI:0.00
PC:169c8     Total:231      MisBP:0   MisRate:0.00%    MPKI:0.00
PC:36230     Total:7      MisBP:0   MisRate:0.00%    MPKI:0.00
PC:135cc     Total:1152      MisBP:0   MisRate:0.00%    MPKI:0.00
PC:13606     Total:1028      MisBP:0   MisRate:0.00%    MPKI:0.00
PC:17c70     Total:4330      MisBP:0   MisRate:0.00%    MPKI:0.00
PC:18586     Total:15528      MisBP:0   MisRate:0.00%    MPKI:0.00
PC:1360a     Total:1027      MisBP:0   MisRate:0.00%    MPKI:0.00
PC:293e8     Total:174      MisBP:0   MisRate:0.00%    MPKI:0.00
PC:13eb4     Total:213470      MisBP:0   MisRate:0.00%    MPKI:0.00
PC:1375e     Total:1      MisBP:0   MisRate:0.00%    MPKI:0.00
PC:186da     Total:382      MisBP:0   MisRate:0.00%    MPKI:0.00
PC:10fa0     Total:229      MisBP:0   MisRate:0.00%    MPKI:0.00
PC:1471a     Total:3805      MisBP:0   MisRate:0.00%    MPKI:0.00
PC:3622a     Total:14      MisBP:0   MisRate:0.00%    MPKI:0.00
PC:16a02     Total:194      MisBP:0   MisRate:0.00%    MPKI:0.00
PC:17c6c     Total:7535      MisBP:0   MisRate:0.00%    MPKI:0.00
PC:18582     Total:15530      MisBP:0   MisRate:0.00%    MPKI:0.00
PC:172ec     Total:156      MisBP:0   MisRate:0.00%    MPKI:0.00
PC:293e4     Total:87      MisBP:0   MisRate:0.00%    MPKI:0.00
PC:169cc     Total:231      MisBP:0   MisRate:0.00%    MPKI:0.00
PC:29268     Total:1      MisBP:0   MisRate:0.00%    MPKI:0.00
PC:17c36     Total:12833      MisBP:0   MisRate:0.00%    MPKI:0.00
PC:18ea0     Total:64      MisBP:0   MisRate:0.00%    MPKI:0.00
PC:36234     Total:7      MisBP:0   MisRate:0.00%    MPKI:0.00
PC:135d0     Total:1152      MisBP:0   MisRate:0.00%    MPKI:0.00
PC:361c2     Total:262      MisBP:0   MisRate:0.00%    MPKI:0.00
PC:1355e     Total:1966      MisBP:0   MisRate:0.00%    MPKI:0.00
PC:1e5aa     Total:16      MisBP:0   MisRate:0.00%    MPKI:0.00
PC:146b2     Total:2843      MisBP:0   MisRate:0.00%    MPKI:0.00
PC:3622e     Total:7      MisBP:0   MisRate:0.00%    MPKI:0.00
PC:135ca     Total:1152      MisBP:0   MisRate:0.00%    MPKI:0.00
PC:13bf8     Total:4000      MisBP:0   MisRate:0.00%    MPKI:0.00
PC:29550     Total:7931      MisBP:0   MisRate:0.00%    MPKI:0.00
PC:146f2     Total:1115      MisBP:0   MisRate:0.00%    MPKI:0.00
PC:16eb0     Total:87      MisBP:0   MisRate:0.00%    MPKI:0.00
PC:169b8     Total:241      MisBP:0   MisRate:0.00%    MPKI:0.00
PC:36220     Total:14      MisBP:0   MisRate:0.00%    MPKI:0.00
PC:18538     Total:1      MisBP:0   MisRate:0.00%    MPKI:0.00
PC:135bc     Total:816139      MisBP:0   MisRate:0.00%    MPKI:0.00
PC:13bc2     Total:3125715      MisBP:0   MisRate:0.00%    MPKI:0.00
PC:14730     Total:2      MisBP:0   MisRate:0.00%    MPKI:0.00
PC:36240     Total:6      MisBP:0   MisRate:0.00%    MPKI:0.00
PC:18558     Total:16252      MisBP:0   MisRate:0.00%    MPKI:0.00
PC:135dc     Total:1145      MisBP:0   MisRate:0.00%    MPKI:0.00
PC:29688     Total:605      MisBP:0   MisRate:0.00%    MPKI:0.00
PC:13ef6     Total:86529      MisBP:0   MisRate:0.00%    MPKI:0.00
PC:111b4     Total:1025      MisBP:0   MisRate:0.00%    MPKI:0.00
PC:10eca     Total:135      MisBP:0   MisRate:0.00%    MPKI:0.00
PC:18604     Total:175453      MisBP:0   MisRate:0.00%    MPKI:0.00
PC:13688     Total:26      MisBP:0   MisRate:0.00%    MPKI:0.00
PC:13bbe     Total:3126242      MisBP:0   MisRate:0.00%    MPKI:0.00
PC:361d2     Total:262      MisBP:0   MisRate:0.00%    MPKI:0.00
PC:184ea     Total:8845745      MisBP:0   MisRate:0.00%    MPKI:0.00
PC:1356e     Total:1925      MisBP:0   MisRate:0.00%    MPKI:0.00
PC:2934c     Total:264      MisBP:0   MisRate:0.00%    MPKI:0.00
PC:16a0c     Total:191      MisBP:0   MisRate:0.00%    MPKI:0.00
PC:17c76     Total:28814      MisBP:0   MisRate:0.00%    MPKI:0.00
PC:13f64     Total:1      MisBP:0   MisRate:0.00%    MPKI:0.00
PC:18ee0     Total:2634      MisBP:0   MisRate:0.00%    MPKI:0.00
PC:13bfc     Total:6328      MisBP:0   MisRate:0.00%    MPKI:0.00
PC:169c4     Total:231      MisBP:0   MisRate:0.00%    MPKI:0.00
PC:29260     Total:2      MisBP:0   MisRate:0.00%    MPKI:0.00
PC:17c2e     Total:14778      MisBP:0   MisRate:0.00%    MPKI:0.00
PC:3622c     Total:17      MisBP:0   MisRate:0.00%    MPKI:0.00
PC:135c8     Total:277      MisBP:0   MisRate:0.00%    MPKI:0.00
PC:169f0     Total:225      MisBP:0   MisRate:0.00%    MPKI:0.00
PC:17c5a     Total:7646      MisBP:0   MisRate:0.00%    MPKI:0.00
PC:18ec4     Total:64610      MisBP:0   MisRate:0.00%    MPKI:0.00
PC:36258     Total:9      MisBP:0   MisRate:0.00%    MPKI:0.00
PC:18570     Total:16025      MisBP:0   MisRate:0.00%    MPKI:0.00
PC:135f4     Total:1139      MisBP:0   MisRate:0.00%    MPKI:0.00
PC:2968c     Total:605      MisBP:0   MisRate:0.00%    MPKI:0.00
PC:16fec     Total:5      MisBP:0   MisRate:0.00%    MPKI:0.00
PC:16a06     Total:193      MisBP:0   MisRate:0.00%    MPKI:0.00
PC:1733a     Total:208      MisBP:0   MisRate:0.00%    MPKI:0.00
PC:111b8     Total:1020      MisBP:0   MisRate:0.00%    MPKI:0.00
PC:10ece     Total:86      MisBP:0   MisRate:0.00%    MPKI:0.00
PC:18608     Total:175344      MisBP:0   MisRate:0.00%    MPKI:0.00
PC:1368c     Total:26      MisBP:0   MisRate:0.00%    MPKI:0.00
PC:1460c     Total:44      MisBP:0   MisRate:0.00%    MPKI:0.00
PC:16dca     Total:4352      MisBP:0   MisRate:0.00%    MPKI:0.00
PC:169a6     Total:251      MisBP:0   MisRate:0.00%    MPKI:0.00
PC:294e4     Total:719      MisBP:0   MisRate:0.00%    MPKI:0.00
PC:1e57e     Total:61      MisBP:0   MisRate:0.00%    MPKI:0.00
PC:16e44     Total:13531      MisBP:0   MisRate:0.00%    MPKI:0.00
PC:1364c     Total:76      MisBP:0   MisRate:0.00%    MPKI:0.00
PC:1dc06     Total:2      MisBP:0   MisRate:0.00%    MPKI:0.00
PC:1e586     Total:41      MisBP:0   MisRate:0.00%    MPKI:0.00
PC:29740     Total:561      MisBP:0   MisRate:0.00%    MPKI:0.00
PC:13620     Total:165      MisBP:0   MisRate:0.00%    MPKI:0.00
PC:169e6     Total:229      MisBP:0   MisRate:0.00%    MPKI:0.00
PC:17c50     Total:8943      MisBP:0   MisRate:0.00%    MPKI:0.00
PC:3624e     Total:4      MisBP:0   MisRate:0.00%    MPKI:0.00
PC:18566     Total:16062      MisBP:0   MisRate:0.00%    MPKI:0.00
PC:135ea     Total:1139      MisBP:0   MisRate:0.00%    MPKI:0.00
PC:293c8     Total:671      MisBP:0   MisRate:0.00%    MPKI:0.00
PC:13e94     Total:181781      MisBP:0   MisRate:0.00%    MPKI:0.00
PC:1859a     Total:15469      MisBP:0   MisRate:0.00%    MPKI:0.00
PC:1361e     Total:166      MisBP:0   MisRate:0.00%    MPKI:0.00
PC:293fc     Total:744      MisBP:0   MisRate:0.00%    MPKI:0.00
PC:294ec     Total:718      MisBP:0   MisRate:0.00%    MPKI:0.00
PC:10224     Total:7      MisBP:0   MisRate:0.00%    MPKI:0.00
PC:1468e     Total:560      MisBP:0   MisRate:0.00%    MPKI:0.00
PC:16e4c     Total:13531      MisBP:0   MisRate:0.00%    MPKI:0.00
PC:12bb4     Total:1      MisBP:0   MisRate:0.00%    MPKI:0.00
PC:17c7e     Total:15      MisBP:0   MisRate:0.00%    MPKI:0.00
PC:18ee8     Total:95      MisBP:0   MisRate:0.00%    MPKI:0.00
PC:18594     Total:15514      MisBP:0   MisRate:0.00%    MPKI:0.00
PC:13618     Total:165      MisBP:0   MisRate:0.00%    MPKI:0.00
PC:16a0e     Total:190      MisBP:0   MisRate:0.00%    MPKI:0.00
PC:13ebc     Total:976      MisBP:0   MisRate:0.00%    MPKI:0.00
PC:13612     Total:174      MisBP:0   MisRate:0.00%    MPKI:0.00
PC:293f0     Total:174      MisBP:0   MisRate:0.00%    MPKI:0.00
PC:294e0     Total:719      MisBP:0   MisRate:0.00%    MPKI:0.00
PC:1e57a     Total:63      MisBP:0   MisRate:0.00%    MPKI:0.00
PC:1362c     Total:165      MisBP:0   MisRate:0.00%    MPKI:0.00
PC:17c96     Total:50      MisBP:0   MisRate:0.00%    MPKI:0.00
PC:18f00     Total:4970      MisBP:0   MisRate:0.00%    MPKI:0.00
PC:13630     Total:89      MisBP:0   MisRate:0.00%    MPKI:0.00
PC:169c0     Total:233      MisBP:0   MisRate:0.00%    MPKI:0.00
PC:2925c     Total:2      MisBP:0   MisRate:0.00%    MPKI:0.00
PC:17c2a     Total:14779      MisBP:0   MisRate:0.00%    MPKI:0.00
PC:185aa     Total:15419      MisBP:0   MisRate:0.00%    MPKI:0.00
PC:2940c     Total:2355      MisBP:0   MisRate:0.00%    MPKI:0.00
PC:294fc     Total:716      MisBP:0   MisRate:0.00%    MPKI:0.00
PC:16a28     Total:183      MisBP:0   MisRate:0.00%    MPKI:0.00
PC:17c92     Total:50      MisBP:0   MisRate:0.00%    MPKI:0.00
PC:18efc     Total:5039      MisBP:0   MisRate:0.00%    MPKI:0.00
PC:185a8     Total:15443      MisBP:0   MisRate:0.00%    MPKI:0.00
PC:16e40     Total:13536      MisBP:0   MisRate:0.00%    MPKI:0.00
PC:169f2     Total:225      MisBP:0   MisRate:0.00%    MPKI:0.00
PC:17c5c     Total:7634      MisBP:0   MisRate:0.00%    MPKI:0.00
PC:13ea0     Total:181474      MisBP:0   MisRate:0.00%    MPKI:0.00
PC:185a4     Total:15447      MisBP:0   MisRate:0.00%    MPKI:0.00
PC:13628     Total:165      MisBP:0   MisRate:0.00%    MPKI:0.00
PC:13e9c     Total:181568      MisBP:0   MisRate:0.00%    MPKI:0.00
PC:10228     Total:2      MisBP:0   MisRate:0.00%    MPKI:0.00
PC:29744     Total:561      MisBP:0   MisRate:0.00%    MPKI:0.00
PC:185a0     Total:15458      MisBP:0   MisRate:0.00%    MPKI:0.00
PC:13624     Total:165      MisBP:0   MisRate:0.00%    MPKI:0.00
PC:16a1c     Total:186      MisBP:0   MisRate:0.00%    MPKI:0.00
PC:17c86     Total:9      MisBP:0   MisRate:0.00%    MPKI:0.00
PC:18ef0     Total:10066      MisBP:0   MisRate:0.00%    MPKI:0.00
PC:184ee     Total:4387218      MisBP:0   MisRate:0.00%    MPKI:0.00
PC:29374     Total:278      MisBP:0   MisRate:0.00%    MPKI:0.00
PC:16ea4     Total:36      MisBP:0   MisRate:0.00%    MPKI:0.00
PC:146e6     Total:4353      MisBP:0   MisRate:0.00%    MPKI:0.00
PC:186e2     Total:379      MisBP:0   MisRate:0.00%    MPKI:0.00
PC:10fa8     Total:909      MisBP:0   MisRate:0.00%    MPKI:0.00
PC:361f6     Total:174      MisBP:0   MisRate:0.00%    MPKI:0.00
PC:29370     Total:278      MisBP:0   MisRate:0.00%    MPKI:0.00
PC:361f2     Total:174      MisBP:0   MisRate:0.00%    MPKI:0.00
PC:2936c     Total:278      MisBP:0   MisRate:0.00%    MPKI:0.00
PC:13742     Total:1      MisBP:0   MisRate:0.00%    MPKI:0.00
PC:186be     Total:1033      MisBP:0   MisRate:0.00%    MPKI:0.00
PC:10f84     Total:3541      MisBP:0   MisRate:0.00%    MPKI:0.00
PC:361d6     Total:188      MisBP:0   MisRate:0.00%    MPKI:0.00
PC:10fac     Total:1825      MisBP:0   MisRate:0.00%    MPKI:0.00
PC:13572     Total:1925      MisBP:0   MisRate:0.00%    MPKI:0.00
PC:29350     Total:264      MisBP:0   MisRate:0.00%    MPKI:0.00
PC:169da     Total:230      MisBP:0   MisRate:0.00%    MPKI:0.00
PC:36242     Total:5      MisBP:0   MisRate:0.00%    MPKI:0.00
PC:1855a     Total:16243      MisBP:0   MisRate:0.00%    MPKI:0.00
PC:135de     Total:1142      MisBP:0   MisRate:0.00%    MPKI:0.00
PC:293bc     Total:809      MisBP:0   MisRate:0.00%    MPKI:0.00
PC:13756     Total:1      MisBP:0   MisRate:0.00%    MPKI:0.00
PC:186d2     Total:386      MisBP:0   MisRate:0.00%    MPKI:0.00
PC:10f98     Total:1994      MisBP:0   MisRate:0.00%    MPKI:0.00
PC:36238     Total:7      MisBP:0   MisRate:0.00%    MPKI:0.00
PC:18550     Total:16258      MisBP:0   MisRate:0.00%    MPKI:0.00
PC:135d4     Total:1152      MisBP:0   MisRate:0.00%    MPKI:0.00
PC:10f80     Total:3542      MisBP:0   MisRate:0.00%    MPKI:0.00
PC:2937c     Total:264      MisBP:0   MisRate:0.00%    MPKI:0.00
PC:294d8     Total:719      MisBP:0   MisRate:0.00%    MPKI:0.00
PC:1467a     Total:561      MisBP:0   MisRate:0.00%    MPKI:0.00
PC:16e38     Total:15170      MisBP:0   MisRate:0.00%    MPKI:0.00
PC:294d4     Total:719      MisBP:0   MisRate:0.00%    MPKI:0.00
PC:1e56e     Total:64      MisBP:0   MisRate:0.00%    MPKI:0.00
PC:14676     Total:562      MisBP:0   MisRate:0.00%    MPKI:0.00
PC:16e34     Total:15171      MisBP:0   MisRate:0.00%    MPKI:0.00
PC:13f6a     Total:1      MisBP:0   MisRate:0.00%    MPKI:0.00
PC:13f66     Total:1      MisBP:0   MisRate:0.00%    MPKI:0.00
PC:294f0     Total:718      MisBP:0   MisRate:0.00%    MPKI:0.00
PC:1e58a     Total:41      MisBP:0   MisRate:0.00%    MPKI:0.00
PC:14692     Total:560      MisBP:0   MisRate:0.00%    MPKI:0.00
PC:29730     Total:594      MisBP:0   MisRate:0.00%    MPKI:0.00
PC:169a2     Total:251      MisBP:0   MisRate:0.00%    MPKI:0.00
PC:1375a     Total:1      MisBP:0   MisRate:0.00%    MPKI:0.00
PC:186d6     Total:383      MisBP:0   MisRate:0.00%    MPKI:0.00
PC:16eac     Total:36      MisBP:0   MisRate:0.00%    MPKI:0.00
PC:146ee     Total:1127      MisBP:0   MisRate:0.00%    MPKI:0.00
PC:10fb0     Total:1821      MisBP:0   MisRate:0.00%    MPKI:0.00
PC:29378     Total:270      MisBP:0   MisRate:0.00%    MPKI:0.00
PC:1372e     Total:9      MisBP:0   MisRate:0.00%    MPKI:0.00
PC:186aa     Total:779      MisBP:0   MisRate:0.00%    MPKI:0.00
PC:10f70     Total:22198      MisBP:0   MisRate:0.00%    MPKI:0.00
PC:16ea8     Total:36      MisBP:0   MisRate:0.00%    MPKI:0.00
PC:146ea     Total:4348      MisBP:0   MisRate:0.00%    MPKI:0.00
PC:1376a     Total:1      MisBP:0   MisRate:0.00%    MPKI:0.00
PC:29558     Total:7931      MisBP:0   MisRate:0.00%    MPKI:0.00
PC:3625c     Total:21      MisBP:0   MisRate:0.00%    MPKI:0.00
PC:18574     Total:16020      MisBP:0   MisRate:0.00%    MPKI:0.00
PC:135f8     Total:1139      MisBP:0   MisRate:0.00%    MPKI:0.00
PC:169f8     Total:222      MisBP:0   MisRate:0.00%    MPKI:0.00
PC:17c62     Total:7600      MisBP:0   MisRate:0.00%    MPKI:0.00
PC:135fc     Total:1133      MisBP:0   MisRate:0.00%    MPKI:0.00
PC:17ba2     Total:23880      MisBP:0   MisRate:0.00%    MPKI:0.00
PC:16a4e     Total:150      MisBP:0   MisRate:0.00%    MPKI:0.00
PC:17cb8     Total:39      MisBP:0   MisRate:0.00%    MPKI:0.00
PC:13efc     Total:86350      MisBP:0   MisRate:0.00%    MPKI:0.00
PC:16a50     Total:150      MisBP:0   MisRate:0.00%    MPKI:0.00
PC:17cba     Total:39      MisBP:0   MisRate:0.00%    MPKI:0.00
PC:18f24     Total:1641      MisBP:0   MisRate:0.00%    MPKI:0.00
PC:10f76     Total:4431      MisBP:0   MisRate:0.00%    MPKI:0.00
PC:13ea2     Total:181108      MisBP:0   MisRate:0.00%    MPKI:0.00
PC:146fa     Total:801      MisBP:0   MisRate:0.00%    MPKI:0.00
PC:16eb8     Total:86      MisBP:0   MisRate:0.00%    MPKI:0.00
PC:17bb8     Total:22993      MisBP:0   MisRate:0.00%    MPKI:0.00
PC:16a64     Total:138      MisBP:0   MisRate:0.00%    MPKI:0.00
PC:17cce     Total:16      MisBP:0   MisRate:0.00%    MPKI:0.00
PC:18f38     Total:108      MisBP:0   MisRate:0.00%    MPKI:0.00
PC:13f12     Total:61814      MisBP:0   MisRate:0.00%    MPKI:0.00
PC:10f8a     Total:3535      MisBP:0   MisRate:0.00%    MPKI:0.00
PC:146c8     Total:317      MisBP:0   MisRate:0.00%    MPKI:0.00
PC:2956c     Total:7929      MisBP:0   MisRate:0.00%    MPKI:0.00
PC:1470e     Total:3810      MisBP:0   MisRate:0.00%    MPKI:0.00
PC:16ecc     Total:4719      MisBP:0   MisRate:0.00%    MPKI:0.00
PC:18e90     Total:576      MisBP:0   MisRate:0.00%    MPKI:0.00
PC:145f4     Total:570      MisBP:0   MisRate:0.00%    MPKI:0.00
PC:135d6     Total:1150      MisBP:0   MisRate:0.00%    MPKI:0.00
PC:293b4     Total:1619      MisBP:0   MisRate:0.00%    MPKI:0.00
PC:2964c     Total:7800      MisBP:0   MisRate:0.00%    MPKI:0.00
PC:16fac     Total:40      MisBP:0   MisRate:0.00%    MPKI:0.00
PC:13bbc     Total:3142482      MisBP:0   MisRate:0.00%    MPKI:0.00
PC:29650     Total:7800      MisBP:0   MisRate:0.00%    MPKI:0.00
PC:16fb0     Total:40      MisBP:0   MisRate:0.00%    MPKI:0.00
PC:29674     Total:606      MisBP:0   MisRate:0.00%    MPKI:0.00
PC:16fd4     Total:32      MisBP:0   MisRate:0.00%    MPKI:0.00
PC:13be4     Total:6403519      MisBP:0   MisRate:0.00%    MPKI:0.00
PC:17322     Total:181      MisBP:0   MisRate:0.00%    MPKI:0.00
PC:12b9e     Total:3      MisBP:0   MisRate:0.00%    MPKI:0.00
PC:111a0     Total:1076      MisBP:0   MisRate:0.00%    MPKI:0.00
PC:13f14     Total:61560      MisBP:0   MisRate:0.00%    MPKI:0.00
PC:16db2     Total:419      MisBP:0   MisRate:0.00%    MPKI:0.00
PC:29678     Total:606      MisBP:0   MisRate:0.00%    MPKI:0.00
PC:13be8     Total:3198856      MisBP:0   MisRate:0.00%    MPKI:0.00
PC:17326     Total:181      MisBP:0   MisRate:0.00%    MPKI:0.00
PC:2967c     Total:606      MisBP:0   MisRate:0.00%    MPKI:0.00
PC:16fdc     Total:6      MisBP:0   MisRate:0.00%    MPKI:0.00
PC:169de     Total:229      MisBP:0   MisRate:0.00%    MPKI:0.00
PC:17c48     Total:8950      MisBP:0   MisRate:0.00%    MPKI:0.00
PC:13e8c     Total:182178      MisBP:0   MisRate:0.00%    MPKI:0.00
PC:36246     Total:5      MisBP:0   MisRate:0.00%    MPKI:0.00
PC:1855e     Total:16242      MisBP:0   MisRate:0.00%    MPKI:0.00
PC:135e2     Total:1142      MisBP:0   MisRate:0.00%    MPKI:0.00
PC:293c0     Total:791      MisBP:0   MisRate:0.00%    MPKI:0.00
PC:1472e     Total:7      MisBP:0   MisRate:0.00%    MPKI:0.00
PC:16ee0     Total:72      MisBP:0   MisRate:0.00%    MPKI:0.00
PC:16a82     Total:122      MisBP:0   MisRate:0.00%    MPKI:0.00
PC:17cec     Total:1      MisBP:0   MisRate:0.00%    MPKI:0.00
PC:18f56     Total:1246      MisBP:0   MisRate:0.00%    MPKI:0.00
PC:13f30     Total:61195      MisBP:0   MisRate:0.00%    MPKI:0.00
PC:17bd8     Total:20329      MisBP:0   MisRate:0.00%    MPKI:0.00
PC:18eae     Total:568      MisBP:0   MisRate:0.00%    MPKI:0.00
PC:13f32     Total:1      MisBP:0   MisRate:0.00%    MPKI:0.00
PC:13768     Total:1      MisBP:0   MisRate:0.00%    MPKI:0.00
PC:186e4     Total:2050      MisBP:0   MisRate:0.00%    MPKI:0.00
PC:10faa     Total:1831      MisBP:0   MisRate:0.00%    MPKI:0.00
PC:146e8     Total:4352      MisBP:0   MisRate:0.00%    MPKI:0.00
PC:2958c     Total:7924      MisBP:0   MisRate:0.00%    MPKI:0.00
PC:14722     Total:7      MisBP:0   MisRate:0.00%    MPKI:0.00
PC:16eec     Total:71      MisBP:0   MisRate:0.00%    MPKI:0.00
PC:18eb2     Total:568      MisBP:0   MisRate:0.00%    MPKI:0.00
PC:13f36     Total:1      MisBP:0   MisRate:0.00%    MPKI:0.00
PC:1376c     Total:1      MisBP:0   MisRate:0.00%    MPKI:0.00
PC:186e8     Total:2048      MisBP:0   MisRate:0.00%    MPKI:0.00
PC:10fae     Total:1823      MisBP:0   MisRate:0.00%    MPKI:0.00
PC:29590     Total:7924      MisBP:0   MisRate:0.00%    MPKI:0.00
PC:14732     Total:2      MisBP:0   MisRate:0.00%    MPKI:0.00
PC:16ef0     Total:67      MisBP:0   MisRate:0.00%    MPKI:0.00
PC:16a8c     Total:122      MisBP:0   MisRate:0.00%    MPKI:0.00
PC:18f60     Total:138      MisBP:0   MisRate:0.00%    MPKI:0.00
PC:10ed2     Total:86      MisBP:0   MisRate:0.00%    MPKI:0.00
PC:1860c     Total:174960      MisBP:0   MisRate:0.00%    MPKI:0.00
PC:13f22     Total:61459      MisBP:0   MisRate:0.00%    MPKI:0.00
PC:18e94     Total:64      MisBP:0   MisRate:0.00%    MPKI:0.00
PC:13f18     Total:61553      MisBP:0   MisRate:0.00%    MPKI:0.00
PC:16a6e     Total:138      MisBP:0   MisRate:0.00%    MPKI:0.00
PC:17cd8     Total:16      MisBP:0   MisRate:0.00%    MPKI:0.00
PC:18f42     Total:636      MisBP:0   MisRate:0.00%    MPKI:0.00
PC:18e98     Total:64      MisBP:0   MisRate:0.00%    MPKI:0.00
PC:13f1c     Total:61546      MisBP:0   MisRate:0.00%    MPKI:0.00
PC:16a72     Total:138      MisBP:0   MisRate:0.00%    MPKI:0.00
PC:17cdc     Total:16      MisBP:0   MisRate:0.00%    MPKI:0.00
PC:18f46     Total:636      MisBP:0   MisRate:0.00%    MPKI:0.00
PC:18e9c     Total:64      MisBP:0   MisRate:0.00%    MPKI:0.00
PC:13f20     Total:61502      MisBP:0   MisRate:0.00%    MPKI:0.00
PC:17bc8     Total:20617      MisBP:0   MisRate:0.00%    MPKI:0.00
PC:18552     Total:16256      MisBP:0   MisRate:0.00%    MPKI:0.00
PC:13758     Total:1      MisBP:0   MisRate:0.00%    MPKI:0.00
PC:10f9a     Total:1992      MisBP:0   MisRate:0.00%    MPKI:0.00
PC:2957c     Total:7929      MisBP:0   MisRate:0.00%    MPKI:0.00
PC:1471e     Total:3770      MisBP:0   MisRate:0.00%    MPKI:0.00
PC:16edc     Total:72      MisBP:0   MisRate:0.00%    MPKI:0.00
PC:17bcc     Total:20511      MisBP:0   MisRate:0.00%    MPKI:0.00
PC:16a78     Total:127      MisBP:0   MisRate:0.00%    MPKI:0.00
PC:18f4c     Total:636      MisBP:0   MisRate:0.00%    MPKI:0.00
PC:18ea2     Total:64      MisBP:0   MisRate:0.00%    MPKI:0.00
PC:13f26     Total:61441      MisBP:0   MisRate:0.00%    MPKI:0.00
PC:1375c     Total:1      MisBP:0   MisRate:0.00%    MPKI:0.00
PC:10f9e     Total:229      MisBP:0   MisRate:0.00%    MPKI:0.00
PC:29580     Total:7924      MisBP:0   MisRate:0.00%    MPKI:0.00
PC:2942c     Total:2345      MisBP:0   MisRate:0.00%    MPKI:0.00
PC:16e74     Total:233      MisBP:0   MisRate:0.00%    MPKI:0.00
PC:169bc     Total:241      MisBP:0   MisRate:0.00%    MPKI:0.00
PC:29258     Total:4      MisBP:0   MisRate:0.00%    MPKI:0.00
PC:17c26     Total:14801      MisBP:0   MisRate:0.00%    MPKI:0.00
PC:1853c     Total:1      MisBP:0   MisRate:0.00%    MPKI:0.00
PC:135c0     Total:800612      MisBP:0   MisRate:0.00%    MPKI:0.00
PC:17b9e     Total:24366      MisBP:0   MisRate:0.00%    MPKI:0.00
PC:16a4a     Total:150      MisBP:0   MisRate:0.00%    MPKI:0.00
PC:17cb4     Total:39      MisBP:0   MisRate:0.00%    MPKI:0.00
PC:18f1e     Total:125      MisBP:0   MisRate:0.00%    MPKI:0.00
PC:10e90     Total:138      MisBP:0   MisRate:0.00%    MPKI:0.00
PC:185ca     Total:168749      MisBP:0   MisRate:0.00%    MPKI:0.00
PC:1364e     Total:76      MisBP:0   MisRate:0.00%    MPKI:0.00
PC:1e5ae     Total:13      MisBP:0   MisRate:0.00%    MPKI:0.00
PC:1dc08     Total:2      MisBP:0   MisRate:0.00%    MPKI:0.00
PC:16d8c     Total:4273      MisBP:0   MisRate:0.00%    MPKI:0.00
PC:13ef8     Total:86468      MisBP:0   MisRate:0.00%    MPKI:0.00
PC:17334     Total:1864      MisBP:0   MisRate:0.00%    MPKI:0.00
PC:169ec     Total:225      MisBP:0   MisRate:0.00%    MPKI:0.00
PC:17c56     Total:7652      MisBP:0   MisRate:0.00%    MPKI:0.00
PC:18ec0     Total:64610      MisBP:0   MisRate:0.00%    MPKI:0.00
PC:13e9a     Total:181600      MisBP:0   MisRate:0.00%    MPKI:0.00
PC:1856c     Total:16032      MisBP:0   MisRate:0.00%    MPKI:0.00
PC:135f0     Total:1139      MisBP:0   MisRate:0.00%    MPKI:0.00
PC:13bf2     Total:3187064      MisBP:0   MisRate:0.00%    MPKI:0.00
PC:17330     Total:177      MisBP:0   MisRate:0.00%    MPKI:0.00
PC:29790     Total:173      MisBP:0   MisRate:0.00%    MPKI:0.00
PC:17b96     Total:24996      MisBP:0   MisRate:0.00%    MPKI:0.00
PC:1858c     Total:15517      MisBP:0   MisRate:0.00%    MPKI:0.00
PC:13610     Total:175      MisBP:0   MisRate:0.00%    MPKI:0.00
PC:13eba     Total:976      MisBP:0   MisRate:0.00%    MPKI:0.00
PC:169d6     Total:231      MisBP:0   MisRate:0.00%    MPKI:0.00
PC:29272     Total:1      MisBP:0   MisRate:0.00%    MPKI:0.00
PC:17c40     Total:8945      MisBP:0   MisRate:0.00%    MPKI:0.00
PC:18eaa     Total:64      MisBP:0   MisRate:0.00%    MPKI:0.00
PC:3623e     Total:7      MisBP:0   MisRate:0.00%    MPKI:0.00
PC:18556     Total:16255      MisBP:0   MisRate:0.00%    MPKI:0.00
PC:135da     Total:1150      MisBP:0   MisRate:0.00%    MPKI:0.00
PC:293b8     Total:809      MisBP:0   MisRate:0.00%    MPKI:0.00
PC:16d18     Total:128      MisBP:0   MisRate:0.00%    MPKI:0.00
PC:29514     Total:7982      MisBP:0   MisRate:0.00%    MPKI:0.00
PC:169e8     Total:225      MisBP:0   MisRate:0.00%    MPKI:0.00
PC:13ef0     Total:86566      MisBP:0   MisRate:0.00%    MPKI:0.00
PC:1699e     Total:252      MisBP:0   MisRate:0.00%    MPKI:0.00
PC:17c08     Total:16120      MisBP:0   MisRate:0.00%    MPKI:0.00
PC:294dc     Total:719      MisBP:0   MisRate:0.00%    MPKI:0.00
PC:361ca     Total:262      MisBP:0   MisRate:0.00%    MPKI:0.00
PC:184e2     Total:448364      MisBP:0   MisRate:0.00%    MPKI:0.00
PC:13566     Total:1966      MisBP:0   MisRate:0.00%    MPKI:0.00
PC:29344     Total:862      MisBP:0   MisRate:0.00%    MPKI:0.00
PC:13bee     Total:3187956      MisBP:0   MisRate:0.00%    MPKI:0.00
PC:2978c     Total:557      MisBP:0   MisRate:0.00%    MPKI:0.00
PC:361c6     Total:262      MisBP:0   MisRate:0.00%    MPKI:0.00
PC:13562     Total:1966      MisBP:0   MisRate:0.00%    MPKI:0.00
PC:29340     Total:862      MisBP:0   MisRate:0.00%    MPKI:0.00
PC:2966c     Total:606      MisBP:0   MisRate:0.00%    MPKI:0.00
PC:17316     Total:210      MisBP:0   MisRate:0.00%    MPKI:0.00
PC:13828     Total:3      MisBP:0   MisRate:0.00%    MPKI:0.00
PC:187a4     Total:87      MisBP:0   MisRate:0.00%    MPKI:0.00
PC:13bea     Total:3197610      MisBP:0   MisRate:0.00%    MPKI:0.00
PC:12ba4     Total:3      MisBP:0   MisRate:0.00%    MPKI:0.00
PC:187b6     Total:3      MisBP:0   MisRate:0.00%    MPKI:0.00
PC:29788     Total:557      MisBP:0   MisRate:0.00%    MPKI:0.00
PC:170e8     Total:1      MisBP:0   MisRate:0.00%    MPKI:0.00
PC:13bda     Total:3019260      MisBP:0   MisRate:0.00%    MPKI:0.00
PC:29648     Total:7800      MisBP:0   MisRate:0.00%    MPKI:0.00
PC:16fa8     Total:40      MisBP:0   MisRate:0.00%    MPKI:0.00
PC:13bb8     Total:3143356      MisBP:0   MisRate:0.00%    MPKI:0.00
PC:17308     Total:3304      MisBP:0   MisRate:0.00%    MPKI:0.00
PC:13bd8     Total:3028944      MisBP:0   MisRate:0.00%    MPKI:0.00
PC:16fcc     Total:31      MisBP:0   MisRate:0.00%    MPKI:0.00
PC:13bdc     Total:3010263      MisBP:0   MisRate:0.00%    MPKI:0.00
PC:1731a     Total:210      MisBP:0   MisRate:0.00%    MPKI:0.00
PC:1382c     Total:3      MisBP:0   MisRate:0.00%    MPKI:0.00
PC:187a8     Total:87      MisBP:0   MisRate:0.00%    MPKI:0.00
PC:13be0     Total:3212524      MisBP:0   MisRate:0.00%    MPKI:0.00
PC:1731e     Total:210      MisBP:0   MisRate:0.00%    MPKI:0.00
PC:29670     Total:606      MisBP:0   MisRate:0.00%    MPKI:0.00
PC:16fd0     Total:32      MisBP:0   MisRate:0.00%    MPKI:0.00
PC:169d2     Total:231      MisBP:0   MisRate:0.00%    MPKI:0.00
PC:2926e     Total:1      MisBP:0   MisRate:0.00%    MPKI:0.00
PC:17c3c     Total:12372      MisBP:0   MisRate:0.00%    MPKI:0.00
PC:3623a     Total:7      MisBP:0   MisRate:0.00%    MPKI:0.00
PC:1852e     Total:1      MisBP:0   MisRate:0.00%    MPKI:0.00
PC:18ebc     Total:64654      MisBP:0   MisRate:0.00%    MPKI:0.00
PC:13e96     Total:181687      MisBP:0   MisRate:0.00%    MPKI:0.00
PC:36250     Total:4      MisBP:0   MisRate:0.00%    MPKI:0.00
PC:18568     Total:16057      MisBP:0   MisRate:0.00%    MPKI:0.00
PC:135ec     Total:1139      MisBP:0   MisRate:0.00%    MPKI:0.00
PC:13bce     Total:3071703      MisBP:0   MisRate:0.00%    MPKI:0.00
PC:1730c     Total:1652      MisBP:0   MisRate:0.00%    MPKI:0.00
PC:12b9a     Total:3      MisBP:0   MisRate:0.00%    MPKI:0.00
PC:13830     Total:3      MisBP:0   MisRate:0.00%    MPKI:0.00
PC:187ac     Total:87      MisBP:0   MisRate:0.00%    MPKI:0.00
PC:10fa4     Total:229      MisBP:0   MisRate:0.00%    MPKI:0.00
PC:14702     Total:96      MisBP:0   MisRate:0.00%    MPKI:0.00
PC:36216     Total:18      MisBP:0   MisRate:0.00%    MPKI:0.00
PC:17892     Total:1      MisBP:0   MisRate:0.00%    MPKI:0.00
PC:135b2     Total:1634722      MisBP:0   MisRate:0.00%    MPKI:0.00
PC:29664     Total:606      MisBP:0   MisRate:0.00%    MPKI:0.00
PC:16fc4     Total:31      MisBP:0   MisRate:0.00%    MPKI:0.00
PC:13bd4     Total:3051061      MisBP:0   MisRate:0.00%    MPKI:0.00
PC:29658     Total:606      MisBP:0   MisRate:0.00%    MPKI:0.00
PC:13bc8     Total:3123588      MisBP:0   MisRate:0.00%    MPKI:0.00
PC:17306     Total:15      MisBP:0   MisRate:0.00%    MPKI:0.00
PC:2965c     Total:606      MisBP:0   MisRate:0.00%    MPKI:0.00
PC:3621a     Total:14      MisBP:0   MisRate:0.00%    MPKI:0.00
PC:18532     Total:1      MisBP:0   MisRate:0.00%    MPKI:0.00
PC:135b6     Total:817048      MisBP:0   MisRate:0.00%    MPKI:0.00
PC:29668     Total:606      MisBP:0   MisRate:0.00%    MPKI:0.00
PC:16fc8     Total:31      MisBP:0   MisRate:0.00%    MPKI:0.00
PC:17c98     Total:50      MisBP:0   MisRate:0.00%    MPKI:0.00
PC:17468     Total:35      MisBP:0   MisRate:0.00%    MPKI:0.00
PC:17400     Total:9      MisBP:0   MisRate:0.00%    MPKI:0.00
PC:17402     Total:9      MisBP:0   MisRate:0.00%    MPKI:0.00
PC:17406     Total:9      MisBP:0   MisRate:0.00%    MPKI:0.00
PC:1740a     Total:9      MisBP:0   MisRate:0.00%    MPKI:0.00
PC:1740c     Total:9      MisBP:0   MisRate:0.00%    MPKI:0.00
PC:17410     Total:9      MisBP:0   MisRate:0.00%    MPKI:0.00
PC:17412     Total:9      MisBP:0   MisRate:0.00%    MPKI:0.00
PC:17414     Total:9      MisBP:0   MisRate:0.00%    MPKI:0.00
PC:17416     Total:8      MisBP:0   MisRate:0.00%    MPKI:0.00
PC:17418     Total:8      MisBP:0   MisRate:0.00%    MPKI:0.00
PC:17c80     Total:9      MisBP:0   MisRate:0.00%    MPKI:0.00
PC:17c8e     Total:50      MisBP:0   MisRate:0.00%    MPKI:0.00
PC:18ef8     Total:5039      MisBP:0   MisRate:0.00%    MPKI:0.00
PC:17466     Total:35      MisBP:0   MisRate:0.00%    MPKI:0.00
PC:17c9e     Total:40      MisBP:0   MisRate:0.00%    MPKI:0.00
PC:18f08     Total:2527      MisBP:0   MisRate:0.00%    MPKI:0.00
PC:17ca2     Total:40      MisBP:0   MisRate:0.00%    MPKI:0.00
PC:18f0c     Total:1268      MisBP:0   MisRate:0.00%    MPKI:0.00
PC:17ca8     Total:40      MisBP:0   MisRate:0.00%    MPKI:0.00
PC:18f12     Total:1266      MisBP:0   MisRate:0.00%    MPKI:0.00
PC:17cca     Total:16      MisBP:0   MisRate:0.00%    MPKI:0.00
PC:18f34     Total:108      MisBP:0   MisRate:0.00%    MPKI:0.00
PC:17cd0     Total:16      MisBP:0   MisRate:0.00%    MPKI:0.00
PC:18f3a     Total:108      MisBP:0   MisRate:0.00%    MPKI:0.00
PC:17cde     Total:16      MisBP:0   MisRate:0.00%    MPKI:0.00
PC:18f48     Total:636      MisBP:0   MisRate:0.00%    MPKI:0.00
PC:17ce4     Total:16      MisBP:0   MisRate:0.00%    MPKI:0.00
PC:1743e     Total:26      MisBP:0   MisRate:0.00%    MPKI:0.00
PC:1736a     Total:194      MisBP:0   MisRate:0.00%    MPKI:0.00
PC:1736c     Total:194      MisBP:0   MisRate:0.00%    MPKI:0.00
PC:17370     Total:200      MisBP:0   MisRate:0.00%    MPKI:0.00
PC:1741c     Total:29      MisBP:0   MisRate:0.00%    MPKI:0.00
PC:17420     Total:29      MisBP:0   MisRate:0.00%    MPKI:0.00
PC:17422     Total:29      MisBP:0   MisRate:0.00%    MPKI:0.00
PC:17428     Total:26      MisBP:0   MisRate:0.00%    MPKI:0.00
PC:1742c     Total:26      MisBP:0   MisRate:0.00%    MPKI:0.00
PC:1742e     Total:26      MisBP:0   MisRate:0.00%    MPKI:0.00
PC:17430     Total:26      MisBP:0   MisRate:0.00%    MPKI:0.00
PC:17434     Total:26      MisBP:0   MisRate:0.00%    MPKI:0.00
PC:17436     Total:26      MisBP:0   MisRate:0.00%    MPKI:0.00
PC:1743a     Total:26      MisBP:0   MisRate:0.00%    MPKI:0.00
PC:18f4e     Total:636      MisBP:0   MisRate:0.00%    MPKI:0.00
PC:17444     Total:6      MisBP:0   MisRate:0.00%    MPKI:0.00
PC:17446     Total:204      MisBP:0   MisRate:0.00%    MPKI:0.00
PC:17448     Total:204      MisBP:0   MisRate:0.00%    MPKI:0.00
PC:1744a     Total:204      MisBP:0   MisRate:0.00%    MPKI:0.00
PC:1744e     Total:204      MisBP:0   MisRate:0.00%    MPKI:0.00
PC:17450     Total:35      MisBP:0   MisRate:0.00%    MPKI:0.00
PC:17454     Total:35      MisBP:0   MisRate:0.00%    MPKI:0.00
PC:17456     Total:35      MisBP:0   MisRate:0.00%    MPKI:0.00
PC:17458     Total:35      MisBP:0   MisRate:0.00%    MPKI:0.00
PC:1745a     Total:35      MisBP:0   MisRate:0.00%    MPKI:0.00
PC:1745e     Total:35      MisBP:0   MisRate:0.00%    MPKI:0.00
PC:17460     Total:35      MisBP:0   MisRate:0.00%    MPKI:0.00
PC:17464     Total:35      MisBP:0   MisRate:0.00%    MPKI:0.00
PC:18736     Total:50      MisBP:0   MisRate:0.00%    MPKI:0.00
PC:17b7e     Total:73943      MisBP:0   MisRate:0.00%    MPKI:0.00
PC:17b82     Total:11096      MisBP:0   MisRate:0.00%    MPKI:0.00
PC:1871a     Total:43133      MisBP:0   MisRate:0.00%    MPKI:0.00
PC:174b0     Total:1210697      MisBP:0   MisRate:0.00%    MPKI:0.00
PC:1871c     Total:43133      MisBP:0   MisRate:0.00%    MPKI:0.00
PC:18720     Total:86266      MisBP:0   MisRate:0.00%    MPKI:0.00
PC:174b6     Total:1210306      MisBP:0   MisRate:0.00%    MPKI:0.00
PC:18724     Total:43133      MisBP:0   MisRate:0.00%    MPKI:0.00
PC:18726     Total:43133      MisBP:0   MisRate:0.00%    MPKI:0.00
PC:18728     Total:43133      MisBP:0   MisRate:0.00%    MPKI:0.00
PC:1872e     Total:50      MisBP:0   MisRate:0.00%    MPKI:0.00
PC:18732     Total:50      MisBP:0   MisRate:0.00%    MPKI:0.00
PC:18734     Total:50      MisBP:0   MisRate:0.00%    MPKI:0.00
PC:17b7a     Total:73959      MisBP:0   MisRate:0.00%    MPKI:0.00
PC:18738     Total:50      MisBP:0   MisRate:0.00%    MPKI:0.00
PC:1873a     Total:50      MisBP:0   MisRate:0.00%    MPKI:0.00
PC:137c0     Total:2017      MisBP:0   MisRate:0.00%    MPKI:0.00
PC:1873c     Total:50      MisBP:0   MisRate:0.00%    MPKI:0.00
PC:137c2     Total:2017      MisBP:0   MisRate:0.00%    MPKI:0.00
PC:1873e     Total:147      MisBP:0   MisRate:0.00%    MPKI:0.00
PC:17b40     Total:8955      MisBP:0   MisRate:0.00%    MPKI:0.00
PC:17b44     Total:8955      MisBP:0   MisRate:0.00%    MPKI:0.00
PC:17b48     Total:8955      MisBP:0   MisRate:0.00%    MPKI:0.00
PC:17b4a     Total:8955      MisBP:0   MisRate:0.00%    MPKI:0.00
PC:17b4e     Total:8955      MisBP:0   MisRate:0.00%    MPKI:0.00
PC:17b50     Total:8955      MisBP:0   MisRate:0.00%    MPKI:0.00
PC:17b52     Total:8955      MisBP:0   MisRate:0.00%    MPKI:0.00
PC:17cac     Total:39      MisBP:0   MisRate:0.00%    MPKI:0.00
PC:17ce8     Total:16      MisBP:0   MisRate:0.00%    MPKI:0.00
PC:18f52     Total:636      MisBP:0   MisRate:0.00%    MPKI:0.00
PC:17cf2     Total:1      MisBP:0   MisRate:0.00%    MPKI:0.00
PC:18f5c     Total:138      MisBP:0   MisRate:0.00%    MPKI:0.00
PC:17cf8     Total:1      MisBP:0   MisRate:0.00%    MPKI:0.00
PC:12bb6     Total:1      MisBP:0   MisRate:0.00%    MPKI:0.00
PC:17b32     Total:9939      MisBP:0   MisRate:0.00%    MPKI:0.00
PC:12bb8     Total:1      MisBP:0   MisRate:0.00%    MPKI:0.00
PC:17b34     Total:9946      MisBP:0   MisRate:0.00%    MPKI:0.00
PC:12bbc     Total:1      MisBP:0   MisRate:0.00%    MPKI:0.00
PC:17b38     Total:9946      MisBP:0   MisRate:0.00%    MPKI:0.00
PC:12bbe     Total:1      MisBP:0   MisRate:0.00%    MPKI:0.00
PC:17b3a     Total:9925      MisBP:0   MisRate:0.00%    MPKI:0.00
PC:17368     Total:199      MisBP:0   MisRate:0.00%    MPKI:0.00
PC:292e4     Total:20      MisBP:0   MisRate:0.00%    MPKI:0.00
PC:17cb2     Total:39      MisBP:0   MisRate:0.00%    MPKI:0.00
PC:17cb6     Total:39      MisBP:0   MisRate:0.00%    MPKI:0.00
PC:18f20     Total:3282      MisBP:0   MisRate:0.00%    MPKI:0.00
PC:17b3c     Total:9924      MisBP:0   MisRate:0.00%    MPKI:0.00
PC:17b3e     Total:9924      MisBP:0   MisRate:0.00%    MPKI:0.00
PC:17b5e     Total:102633      MisBP:0   MisRate:0.00%    MPKI:0.00
PC:17b60     Total:102633      MisBP:0   MisRate:0.00%    MPKI:0.00
PC:17b66     Total:98523      MisBP:0   MisRate:0.00%    MPKI:0.00
PC:17b6a     Total:98522      MisBP:0   MisRate:0.00%    MPKI:0.00
PC:17b6c     Total:98522      MisBP:0   MisRate:0.00%    MPKI:0.00
PC:17b70     Total:98522      MisBP:0   MisRate:0.00%    MPKI:0.00
PC:17b72     Total:98522      MisBP:0   MisRate:0.00%    MPKI:0.00
PC:17380     Total:1714      MisBP:0   MisRate:0.00%    MPKI:0.00
PC:172c6     Total:16      MisBP:0   MisRate:0.00%    MPKI:0.00
PC:172c8     Total:16      MisBP:0   MisRate:0.00%    MPKI:0.00
PC:172cc     Total:22      MisBP:0   MisRate:0.00%    MPKI:0.00
PC:172fe     Total:15      MisBP:0   MisRate:0.00%    MPKI:0.00
PC:17310     Total:19      MisBP:0   MisRate:0.00%    MPKI:0.00
PC:17314     Total:19      MisBP:0   MisRate:0.00%    MPKI:0.00
PC:1732a     Total:181      MisBP:0   MisRate:0.00%    MPKI:0.00
PC:1732e     Total:181      MisBP:0   MisRate:0.00%    MPKI:0.00
PC:17338     Total:1864      MisBP:0   MisRate:0.00%    MPKI:0.00
PC:1733e     Total:208      MisBP:0   MisRate:0.00%    MPKI:0.00
PC:17374     Total:1956      MisBP:0   MisRate:0.00%    MPKI:0.00
PC:17376     Total:1956      MisBP:0   MisRate:0.00%    MPKI:0.00
PC:1737c     Total:1904      MisBP:0   MisRate:0.00%    MPKI:0.00
PC:172c4     Total:16      MisBP:0   MisRate:0.00%    MPKI:0.00
PC:17382     Total:1714      MisBP:0   MisRate:0.00%    MPKI:0.00
PC:17386     Total:1714      MisBP:0   MisRate:0.00%    MPKI:0.00
PC:17388     Total:1714      MisBP:0   MisRate:0.00%    MPKI:0.00
PC:17390     Total:1829      MisBP:0   MisRate:0.00%    MPKI:0.00
PC:17394     Total:1829      MisBP:0   MisRate:0.00%    MPKI:0.00
PC:1739a     Total:172      MisBP:0   MisRate:0.00%    MPKI:0.00
PC:1739c     Total:215      MisBP:0   MisRate:0.00%    MPKI:0.00
PC:173a0     Total:215      MisBP:0   MisRate:0.00%    MPKI:0.00
PC:173a6     Total:17      MisBP:0   MisRate:0.00%    MPKI:0.00
PC:173a8     Total:17      MisBP:0   MisRate:0.00%    MPKI:0.00
PC:173aa     Total:17      MisBP:0   MisRate:0.00%    MPKI:0.00
PC:173ae     Total:17      MisBP:0   MisRate:0.00%    MPKI:0.00
PC:173b0     Total:17      MisBP:0   MisRate:0.00%    MPKI:0.00
PC:36204     Total:19      MisBP:0   MisRate:0.00%    MPKI:0.00
PC:172d8     Total:167      MisBP:0   MisRate:0.00%    MPKI:0.00
PC:172dc     Total:167      MisBP:0   MisRate:0.00%    MPKI:0.00
PC:172de     Total:167      MisBP:0   MisRate:0.00%    MPKI:0.00
PC:172e2     Total:167      MisBP:0   MisRate:0.00%    MPKI:0.00
PC:172e6     Total:167      MisBP:0   MisRate:0.00%    MPKI:0.00
PC:172ea     Total:156      MisBP:0   MisRate:0.00%    MPKI:0.00
PC:172f4     Total:156      MisBP:0   MisRate:0.00%    MPKI:0.00
PC:172f8     Total:156      MisBP:0   MisRate:0.00%    MPKI:0.00
PC:172ae     Total:21      MisBP:0   MisRate:0.00%    MPKI:0.00
PC:172b0     Total:21      MisBP:0   MisRate:0.00%    MPKI:0.00
PC:1359e     Total:213060      MisBP:0   MisRate:0.00%    MPKI:0.00
PC:1851a     Total:2      MisBP:0   MisRate:0.00%    MPKI:0.00
PC:172b2     Total:21      MisBP:0   MisRate:0.00%    MPKI:0.00
PC:173b4     Total:3820      MisBP:0   MisRate:0.00%    MPKI:0.00
PC:135a0     Total:212873      MisBP:0   MisRate:0.00%    MPKI:0.00
PC:1851c     Total:2      MisBP:0   MisRate:0.00%    MPKI:0.00
PC:172b6     Total:21      MisBP:0   MisRate:0.00%    MPKI:0.00
PC:172ba     Total:21      MisBP:0   MisRate:0.00%    MPKI:0.00
PC:135a8     Total:773429      MisBP:0   MisRate:0.00%    MPKI:0.00
PC:18524     Total:2      MisBP:0   MisRate:0.00%    MPKI:0.00
PC:172bc     Total:21      MisBP:0   MisRate:0.00%    MPKI:0.00
PC:3620e     Total:18      MisBP:0   MisRate:0.00%    MPKI:0.00
PC:18526     Total:2      MisBP:0   MisRate:0.00%    MPKI:0.00
PC:172c0     Total:16      MisBP:0   MisRate:0.00%    MPKI:0.00
PC:135ae     Total:817709      MisBP:0   MisRate:0.00%    MPKI:0.00
PC:1852a     Total:2      MisBP:0   MisRate:0.00%    MPKI:0.00
PC:172c2     Total:16      MisBP:0   MisRate:0.00%    MPKI:0.00
PC:17342     Total:205      MisBP:0   MisRate:0.00%    MPKI:0.00
PC:173e0     Total:19      MisBP:0   MisRate:0.00%    MPKI:0.00
PC:173e4     Total:19      MisBP:0   MisRate:0.00%    MPKI:0.00
PC:173e6     Total:12      MisBP:0   MisRate:0.00%    MPKI:0.00
PC:173ea     Total:12      MisBP:0   MisRate:0.00%    MPKI:0.00
PC:173ec     Total:12      MisBP:0   MisRate:0.00%    MPKI:0.00
PC:173ee     Total:12      MisBP:0   MisRate:0.00%    MPKI:0.00
PC:173f0     Total:12      MisBP:0   MisRate:0.00%    MPKI:0.00
PC:173f4     Total:12      MisBP:0   MisRate:0.00%    MPKI:0.00
PC:173f6     Total:12      MisBP:0   MisRate:0.00%    MPKI:0.00
PC:173fa     Total:12      MisBP:0   MisRate:0.00%    MPKI:0.00
PC:173fc     Total:12      MisBP:0   MisRate:0.00%    MPKI:0.00
PC:173fe     Total:12      MisBP:0   MisRate:0.00%    MPKI:0.00
PC:17340     Total:205      MisBP:0   MisRate:0.00%    MPKI:0.00
PC:173de     Total:19      MisBP:0   MisRate:0.00%    MPKI:0.00
PC:17344     Total:205      MisBP:0   MisRate:0.00%    MPKI:0.00
PC:17348     Total:205      MisBP:0   MisRate:0.00%    MPKI:0.00
PC:1734a     Total:207      MisBP:0   MisRate:0.00%    MPKI:0.00
PC:1734e     Total:207      MisBP:0   MisRate:0.00%    MPKI:0.00
PC:17350     Total:207      MisBP:0   MisRate:0.00%    MPKI:0.00
PC:17352     Total:207      MisBP:0   MisRate:0.00%    MPKI:0.00
PC:17354     Total:201      MisBP:0   MisRate:0.00%    MPKI:0.00
PC:17356     Total:201      MisBP:0   MisRate:0.00%    MPKI:0.00
PC:1735a     Total:201      MisBP:0   MisRate:0.00%    MPKI:0.00
PC:1735e     Total:201      MisBP:0   MisRate:0.00%    MPKI:0.00
PC:17360     Total:199      MisBP:0   MisRate:0.00%    MPKI:0.00
PC:17364     Total:199      MisBP:0   MisRate:0.00%    MPKI:0.00
PC:17366     Total:199      MisBP:0   MisRate:0.00%    MPKI:0.00
PC:135a6     Total:211844      MisBP:0   MisRate:0.00%    MPKI:0.00
PC:173b8     Total:1910      MisBP:0   MisRate:0.00%    MPKI:0.00
PC:173be     Total:1011      MisBP:0   MisRate:0.00%    MPKI:0.00
PC:361ea     Total:181      MisBP:0   MisRate:0.00%    MPKI:0.00
PC:13586     Total:1865      MisBP:0   MisRate:0.00%    MPKI:0.00
PC:18502     Total:1045      MisBP:0   MisRate:0.00%    MPKI:0.00
PC:361f4     Total:174      MisBP:0   MisRate:0.00%    MPKI:0.00
PC:1850c     Total:1045      MisBP:0   MisRate:0.00%    MPKI:0.00
PC:361fa     Total:170      MisBP:0   MisRate:0.00%    MPKI:0.00
PC:13596     Total:213466      MisBP:0   MisRate:0.00%    MPKI:0.00
PC:18512     Total:370410      MisBP:0   MisRate:0.00%    MPKI:0.00
PC:36206     Total:19      MisBP:0   MisRate:0.00%    MPKI:0.00
PC:1851e     Total:2      MisBP:0   MisRate:0.00%    MPKI:0.00
PC:3620a     Total:18      MisBP:0   MisRate:0.00%    MPKI:0.00
PC:17b54     Total:8955      MisBP:0   MisRate:0.00%    MPKI:0.00
PC:18522     Total:2      MisBP:0   MisRate:0.00%    MPKI:0.00
PC:36210     Total:18      MisBP:0   MisRate:0.00%    MPKI:0.00
PC:18528     Total:2      MisBP:0   MisRate:0.00%    MPKI:0.00
PC:173c0     Total:938      MisBP:0   MisRate:0.00%    MPKI:0.00
PC:173c4     Total:938      MisBP:0   MisRate:0.00%    MPKI:0.00
PC:173c8     Total:1909      MisBP:0   MisRate:0.00%    MPKI:0.00
PC:173ca     Total:1909      MisBP:0   MisRate:0.00%    MPKI:0.00
PC:173d0     Total:19      MisBP:0   MisRate:0.00%    MPKI:0.00
PC:173d2     Total:19      MisBP:0   MisRate:0.00%    MPKI:0.00
PC:173d4     Total:19      MisBP:0   MisRate:0.00%    MPKI:0.00
PC:173d8     Total:19      MisBP:0   MisRate:0.00%    MPKI:0.00
PC:173da     Total:19      MisBP:0   MisRate:0.00%    MPKI:0.00
PC:173dc     Total:19      MisBP:0   MisRate:0.00%    MPKI:0.00
PC:17482     Total:31      MisBP:0   MisRate:0.00%    MPKI:0.00
PC:16e12     Total:1355      MisBP:0   MisRate:0.00%    MPKI:0.00
PC:16e16     Total:1333      MisBP:0   MisRate:0.00%    MPKI:0.00
PC:16e1a     Total:1333      MisBP:0   MisRate:0.00%    MPKI:0.00
PC:1e558     Total:67      MisBP:0   MisRate:0.00%    MPKI:0.00
PC:16e1e     Total:1333      MisBP:0   MisRate:0.00%    MPKI:0.00
PC:1e55c     Total:67      MisBP:0   MisRate:0.00%    MPKI:0.00
PC:16e22     Total:1333      MisBP:0   MisRate:0.00%    MPKI:0.00
PC:1e564     Total:66      MisBP:0   MisRate:0.00%    MPKI:0.00
PC:1466c     Total:562      MisBP:0   MisRate:0.00%    MPKI:0.00
PC:16e2a     Total:1220      MisBP:0   MisRate:0.00%    MPKI:0.00
PC:1e568     Total:65      MisBP:0   MisRate:0.00%    MPKI:0.00
PC:14670     Total:562      MisBP:0   MisRate:0.00%    MPKI:0.00
PC:16e2e     Total:1220      MisBP:0   MisRate:0.00%    MPKI:0.00
PC:17480     Total:31      MisBP:0   MisRate:0.00%    MPKI:0.00
PC:1e54c     Total:69      MisBP:0   MisRate:0.00%    MPKI:0.00
PC:13f2c     Total:61196      MisBP:0   MisRate:0.00%    MPKI:0.00
PC:18ea8     Total:64      MisBP:0   MisRate:0.00%    MPKI:0.00
PC:18eb4     Total:568      MisBP:0   MisRate:0.00%    MPKI:0.00
PC:18ec8     Total:64610      MisBP:0   MisRate:0.00%    MPKI:0.00
PC:13f52     Total:820      MisBP:0   MisRate:0.00%    MPKI:0.00
PC:18ece     Total:64610      MisBP:0   MisRate:0.00%    MPKI:0.00
PC:13f58     Total:819      MisBP:0   MisRate:0.00%    MPKI:0.00
PC:18ed4     Total:617      MisBP:0   MisRate:0.00%    MPKI:0.00
PC:18ed8     Total:82      MisBP:0   MisRate:0.00%    MPKI:0.00
PC:13f68     Total:1      MisBP:0   MisRate:0.00%    MPKI:0.00
PC:18ee4     Total:1317      MisBP:0   MisRate:0.00%    MPKI:0.00
PC:18eee     Total:95      MisBP:0   MisRate:0.00%    MPKI:0.00
PC:18ef4     Total:5033      MisBP:0   MisRate:0.00%    MPKI:0.00
PC:16e5e     Total:11561      MisBP:0   MisRate:0.00%    MPKI:0.00
PC:14680     Total:560      MisBP:0   MisRate:0.00%    MPKI:0.00
PC:1e580     Total:43      MisBP:0   MisRate:0.00%    MPKI:0.00
PC:14688     Total:560      MisBP:0   MisRate:0.00%    MPKI:0.00
PC:16e46     Total:13531      MisBP:0   MisRate:0.00%    MPKI:0.00
PC:1e588     Total:41      MisBP:0   MisRate:0.00%    MPKI:0.00
PC:16e4e     Total:13531      MisBP:0   MisRate:0.00%    MPKI:0.00
PC:1e58c     Total:41      MisBP:0   MisRate:0.00%    MPKI:0.00
PC:16e52     Total:11848      MisBP:0   MisRate:0.00%    MPKI:0.00
PC:1e594     Total:30      MisBP:0   MisRate:0.00%    MPKI:0.00
PC:1469c     Total:2581      MisBP:0   MisRate:0.00%    MPKI:0.00
PC:16e5a     Total:11555      MisBP:0   MisRate:0.00%    MPKI:0.00
PC:1e598     Total:28      MisBP:0   MisRate:0.00%    MPKI:0.00
PC:146a0     Total:5216      MisBP:0   MisRate:0.00%    MPKI:0.00
PC:18f2a     Total:110      MisBP:0   MisRate:0.00%    MPKI:0.00
PC:1e59c     Total:28      MisBP:0   MisRate:0.00%    MPKI:0.00
PC:16e62     Total:11561      MisBP:0   MisRate:0.00%    MPKI:0.00
PC:1e5a0     Total:17      MisBP:0   MisRate:0.00%    MPKI:0.00
PC:146a8     Total:3281      MisBP:0   MisRate:0.00%    MPKI:0.00
PC:16e66     Total:11561      MisBP:0   MisRate:0.00%    MPKI:0.00
PC:1e5a4     Total:17      MisBP:0   MisRate:0.00%    MPKI:0.00
PC:146ac     Total:4120      MisBP:0   MisRate:0.00%    MPKI:0.00
PC:16e6a     Total:11561      MisBP:0   MisRate:0.00%    MPKI:0.00
PC:16dfe     Total:1337      MisBP:0   MisRate:0.00%    MPKI:0.00
PC:14648     Total:4      MisBP:0   MisRate:0.00%    MPKI:0.00
PC:1e540     Total:70      MisBP:0   MisRate:0.00%    MPKI:0.00
PC:16e06     Total:1343      MisBP:0   MisRate:0.00%    MPKI:0.00
PC:16e0e     Total:1353      MisBP:0   MisRate:0.00%    MPKI:0.00
PC:16fe6     Total:5      MisBP:0   MisRate:0.00%    MPKI:0.00
PC:16f9a     Total:41      MisBP:0   MisRate:0.00%    MPKI:0.00
PC:16fa6     Total:41      MisBP:0   MisRate:0.00%    MPKI:0.00
PC:16faa     Total:40      MisBP:0   MisRate:0.00%    MPKI:0.00
PC:16fb6     Total:40      MisBP:0   MisRate:0.00%    MPKI:0.00
PC:16fba     Total:40      MisBP:0   MisRate:0.00%    MPKI:0.00
PC:16fbe     Total:40      MisBP:0   MisRate:0.00%    MPKI:0.00
PC:16fc2     Total:31      MisBP:0   MisRate:0.00%    MPKI:0.00
PC:16fc6     Total:31      MisBP:0   MisRate:0.00%    MPKI:0.00
PC:16fca     Total:31      MisBP:0   MisRate:0.00%    MPKI:0.00
PC:16fce     Total:37      MisBP:0   MisRate:0.00%    MPKI:0.00
PC:16fd6     Total:6      MisBP:0   MisRate:0.00%    MPKI:0.00
PC:16fda     Total:6      MisBP:0   MisRate:0.00%    MPKI:0.00
PC:16fde     Total:6      MisBP:0   MisRate:0.00%    MPKI:0.00
PC:16f92     Total:41      MisBP:0   MisRate:0.00%    MPKI:0.00
PC:16fea     Total:5      MisBP:0   MisRate:0.00%    MPKI:0.00
PC:16fee     Total:5      MisBP:0   MisRate:0.00%    MPKI:0.00
PC:16ff2     Total:5      MisBP:0   MisRate:0.00%    MPKI:0.00
PC:16ff6     Total:5      MisBP:0   MisRate:0.00%    MPKI:0.00
PC:16ffa     Total:5      MisBP:0   MisRate:0.00%    MPKI:0.00
PC:17012     Total:24      MisBP:0   MisRate:0.00%    MPKI:0.00
PC:17016     Total:24      MisBP:0   MisRate:0.00%    MPKI:0.00
PC:1701a     Total:21      MisBP:0   MisRate:0.00%    MPKI:0.00
[...]
PC:174f0     Total:1013204      MisBP:0   MisRate:0.00%    MPKI:0.00
PC:10ec2     Total:135      MisBP:0   MisRate:0.00%    MPKI:0.00
PC:185fc     Total:184199      MisBP:0   MisRate:0.00%    MPKI:0.00
PC:13680     Total:26      MisBP:0   MisRate:0.00%    MPKI:0.00
PC:111ac     Total:1027      MisBP:0   MisRate:0.00%    MPKI:0.00
PC:16dbe     Total:401      MisBP:0   MisRate:0.00%    MPKI:0.00
PC:174f4     Total:1004550      MisBP:0   MisRate:0.00%    MPKI:0.00
PC:174f8     Total:1003776      MisBP:0   MisRate:0.00%    MPKI:0.00
PC:184b4     Total:478137      MisBP:0   MisRate:0.00%    MPKI:0.00
PC:13538     Total:2035      MisBP:0   MisRate:0.00%    MPKI:0.00
PC:174ec     Total:1013936      MisBP:0   MisRate:0.00%    MPKI:0.00
PC:13814     Total:3      MisBP:0   MisRate:0.00%    MPKI:0.00
PC:174fa     Total:1002678      MisBP:0   MisRate:0.00%    MPKI:0.00
PC:11056     Total:171      MisBP:0   MisRate:0.00%    MPKI:0.00
PC:18488     Total:937923      MisBP:0   MisRate:0.00%    MPKI:0.00
PC:1350c     Total:2061      MisBP:0   MisRate:0.00%    MPKI:0.00
PC:18484     Total:938907      MisBP:0   MisRate:0.00%    MPKI:0.00
PC:174fc     Total:1002586      MisBP:0   MisRate:0.00%    MPKI:0.00
PC:11028     Total:1070      MisBP:0   MisRate:0.00%    MPKI:0.00
PC:13508     Total:2061      MisBP:0   MisRate:0.00%    MPKI:0.00
PC:137e6     Total:4      MisBP:0   MisRate:0.00%    MPKI:0.00
PC:17bd4     Total:20346      MisBP:0   MisRate:0.00%    MPKI:0.00
PC:1368e     Total:26      MisBP:0   MisRate:0.00%    MPKI:0.00
PC:2946c     Total:920      MisBP:0   MisRate:0.00%    MPKI:0.00
PC:17bda     Total:20309      MisBP:0   MisRate:0.00%    MPKI:0.00
PC:174da     Total:1145421      MisBP:0   MisRate:0.00%    MPKI:0.00
PC:16a86     Total:122      MisBP:0   MisRate:0.00%    MPKI:0.00
PC:17cf0     Total:1      MisBP:0   MisRate:0.00%    MPKI:0.00
PC:174dc     Total:1140222      MisBP:0   MisRate:0.00%    MPKI:0.00
PC:174de     Total:1139762      MisBP:0   MisRate:0.00%    MPKI:0.00
PC:18606     Total:175411      MisBP:0   MisRate:0.00%    MPKI:0.00
PC:1368a     Total:26      MisBP:0   MisRate:0.00%    MPKI:0.00
PC:29468     Total:920      MisBP:0   MisRate:0.00%    MPKI:0.00
PC:10ee0     Total:130      MisBP:0   MisRate:0.00%    MPKI:0.00
PC:16a80     Total:122      MisBP:0   MisRate:0.00%    MPKI:0.00
PC:17cea     Total:16      MisBP:0   MisRate:0.00%    MPKI:0.00
PC:10ec6     Total:135      MisBP:0   MisRate:0.00%    MPKI:0.00
PC:18600     Total:175467      MisBP:0   MisRate:0.00%    MPKI:0.00
PC:174e2     Total:1139652      MisBP:0   MisRate:0.00%    MPKI:0.00
PC:13684     Total:26      MisBP:0   MisRate:0.00%    MPKI:0.00
PC:174e4     Total:1139453      MisBP:0   MisRate:0.00%    MPKI:0.00
PC:111b0     Total:1027      MisBP:0   MisRate:0.00%    MPKI:0.00
PC:17bd0     Total:20372      MisBP:0   MisRate:0.00%    MPKI:0.00
PC:174e6     Total:1138705      MisBP:0   MisRate:0.00%    MPKI:0.00
PC:295c4     Total:7904      MisBP:0   MisRate:0.00%    MPKI:0.00
PC:16d76     Total:148      MisBP:0   MisRate:0.00%    MPKI:0.00
PC:16d78     Total:148      MisBP:0   MisRate:0.00%    MPKI:0.00
PC:14770     Total:3      MisBP:0   MisRate:0.00%    MPKI:0.00
PC:16f2e     Total:1625      MisBP:0   MisRate:0.00%    MPKI:0.00
PC:295cc     Total:7901      MisBP:0   MisRate:0.00%    MPKI:0.00
PC:16d7e     Total:141      MisBP:0   MisRate:0.00%    MPKI:0.00
PC:1476c     Total:3      MisBP:0   MisRate:0.00%    MPKI:0.00
PC:16f2a     Total:3250      MisBP:0   MisRate:0.00%    MPKI:0.00
PC:295c8     Total:7901      MisBP:0   MisRate:0.00%    MPKI:0.00
PC:1476a     Total:3      MisBP:0   MisRate:0.00%    MPKI:0.00
PC:16f28     Total:11      MisBP:0   MisRate:0.00%    MPKI:0.00
PC:14772     Total:3      MisBP:0   MisRate:0.00%    MPKI:0.00
PC:14766     Total:3      MisBP:0   MisRate:0.00%    MPKI:0.00
PC:16f24     Total:11      MisBP:0   MisRate:0.00%    MPKI:0.00
PC:295c0     Total:7904      MisBP:0   MisRate:0.00%    MPKI:0.00
PC:16cfa     Total:123      MisBP:0   MisRate:0.00%    MPKI:0.00
PC:14762     Total:4      MisBP:0   MisRate:0.00%    MPKI:0.00
PC:16f20     Total:11      MisBP:0   MisRate:0.00%    MPKI:0.00
PC:16cfe     Total:123      MisBP:0   MisRate:0.00%    MPKI:0.00
PC:14760     Total:4      MisBP:0   MisRate:0.00%    MPKI:0.00
PC:18f6e     Total:1906      MisBP:0   MisRate:0.00%    MPKI:0.00
PC:16d00     Total:111      MisBP:0   MisRate:0.00%    MPKI:0.00
PC:1477c     Total:3      MisBP:0   MisRate:0.00%    MPKI:0.00
PC:361be     Total:262      MisBP:0   MisRate:0.00%    MPKI:0.00
PC:184d6     Total:449472      MisBP:0   MisRate:0.00%    MPKI:0.00
PC:1355a     Total:1966      MisBP:0   MisRate:0.00%    MPKI:0.00
PC:16d36     Total:133      MisBP:0   MisRate:0.00%    MPKI:0.00
PC:295dc     Total:7887      MisBP:0   MisRate:0.00%    MPKI:0.00
PC:16f3c     Total:17      MisBP:0   MisRate:0.00%    MPKI:0.00
PC:1464c     Total:4      MisBP:0   MisRate:0.00%    MPKI:0.00
PC:1e544     Total:69      MisBP:0   MisRate:0.00%    MPKI:0.00
PC:176c8     Total:25      MisBP:0   MisRate:0.00%    MPKI:0.00
PC:16d3a     Total:133      MisBP:0   MisRate:0.00%    MPKI:0.00
PC:16d3c     Total:30      MisBP:0   MisRate:0.00%    MPKI:0.00
PC:16f1e     Total:11      MisBP:0   MisRate:0.00%    MPKI:0.00
PC:16f3a     Total:17      MisBP:0   MisRate:0.00%    MPKI:0.00
PC:176c6     Total:25      MisBP:0   MisRate:0.00%    MPKI:0.00
PC:295d8     Total:7887      MisBP:0   MisRate:0.00%    MPKI:0.00
PC:16d72     Total:148      MisBP:0   MisRate:0.00%    MPKI:0.00
PC:176c2     Total:25      MisBP:0   MisRate:0.00%    MPKI:0.00
PC:295d4     Total:7887      MisBP:0   MisRate:0.00%    MPKI:0.00
PC:11036     Total:1044      MisBP:0   MisRate:0.00%    MPKI:0.00
PC:137f4     Total:4      MisBP:0   MisRate:0.00%    MPKI:0.00
PC:16f32     Total:17      MisBP:0   MisRate:0.00%    MPKI:0.00
PC:295d0     Total:7892      MisBP:0   MisRate:0.00%    MPKI:0.00
PC:16d50     Total:20      MisBP:0   MisRate:0.00%    MPKI:0.00
PC:16d42     Total:20      MisBP:0   MisRate:0.00%    MPKI:0.00
PC:16d04     Total:111      MisBP:0   MisRate:0.00%    MPKI:0.00
PC:16f08     Total:11      MisBP:0   MisRate:0.00%    MPKI:0.00
PC:295a0     Total:7923      MisBP:0   MisRate:0.00%    MPKI:0.00
PC:16f00     Total:11      MisBP:0   MisRate:0.00%    MPKI:0.00
PC:16d46     Total:20      MisBP:0   MisRate:0.00%    MPKI:0.00
PC:16aae     Total:16      MisBP:0   MisRate:0.00%    MPKI:0.00
PC:16d4a     Total:20      MisBP:0   MisRate:0.00%    MPKI:0.00
PC:16d4c     Total:20      MisBP:0   MisRate:0.00%    MPKI:0.00
PC:18f74     Total:941      MisBP:0   MisRate:0.00%    MPKI:0.00
PC:10ee6     Total:130      MisBP:0   MisRate:0.00%    MPKI:0.00
PC:16d44     Total:20      MisBP:0   MisRate:0.00%    MPKI:0.00
PC:16d52     Total:20      MisBP:0   MisRate:0.00%    MPKI:0.00
PC:18620     Total:415800      MisBP:0   MisRate:0.00%    MPKI:0.00
PC:16d54     Total:18      MisBP:0   MisRate:0.00%    MPKI:0.00
PC:136a4     Total:17      MisBP:0   MisRate:0.00%    MPKI:0.00
PC:111d0     Total:681      MisBP:0   MisRate:0.00%    MPKI:0.00
PC:16a9c     Total:121      MisBP:0   MisRate:0.00%    MPKI:0.00
PC:10ee2     Total:130      MisBP:0   MisRate:0.00%    MPKI:0.00
PC:136a0     Total:20      MisBP:0   MisRate:0.00%    MPKI:0.00
PC:16d56     Total:18      MisBP:0   MisRate:0.00%    MPKI:0.00
PC:16a9a     Total:121      MisBP:0   MisRate:0.00%    MPKI:0.00
PC:295ac     Total:7923      MisBP:0   MisRate:0.00%    MPKI:0.00
PC:1475c     Total:70      MisBP:0   MisRate:0.00%    MPKI:0.00
PC:16d06     Total:111      MisBP:0   MisRate:0.00%    MPKI:0.00
PC:16f1a     Total:11      MisBP:0   MisRate:0.00%    MPKI:0.00
PC:16d08     Total:111      MisBP:0   MisRate:0.00%    MPKI:0.00
PC:295b8     Total:7920      MisBP:0   MisRate:0.00%    MPKI:0.00
PC:295b4     Total:7921      MisBP:0   MisRate:0.00%    MPKI:0.00
PC:16f14     Total:11      MisBP:0   MisRate:0.00%    MPKI:0.00
PC:295b0     Total:7922      MisBP:0   MisRate:0.00%    MPKI:0.00
PC:14752     Total:70      MisBP:0   MisRate:0.00%    MPKI:0.00
PC:16f10     Total:11      MisBP:0   MisRate:0.00%    MPKI:0.00
PC:16d40     Total:20      MisBP:0   MisRate:0.00%    MPKI:0.00
PC:1474e     Total:70      MisBP:0   MisRate:0.00%    MPKI:0.00
PC:16f0c     Total:11      MisBP:0   MisRate:0.00%    MPKI:0.00
PC:16d0c     Total:113      MisBP:0   MisRate:0.00%    MPKI:0.00
PC:16d0e     Total:113      MisBP:0   MisRate:0.00%    MPKI:0.00
PC:137ca     Total:4      MisBP:0   MisRate:0.00%    MPKI:0.00
PC:295a8     Total:7923      MisBP:0   MisRate:0.00%    MPKI:0.00
PC:1474a     Total:70      MisBP:0   MisRate:0.00%    MPKI:0.00
PC:16d10     Total:113      MisBP:0   MisRate:0.00%    MPKI:0.00
PC:16d14     Total:113      MisBP:0   MisRate:0.00%    MPKI:0.00
PC:177f0     Total:21      MisBP:1   MisRate:4.76%    MPKI:0.00
PC:1884e     Total:5      MisBP:1   MisRate:20.00%    MPKI:0.00
PC:18870     Total:6      MisBP:1   MisRate:16.67%    MPKI:0.00
PC:178f4     Total:26      MisBP:1   MisRate:3.85%    MPKI:0.00
PC:1354a     Total:3      MisBP:1   MisRate:33.33%    MPKI:0.00
PC:12b7c     Total:5      MisBP:1   MisRate:20.00%    MPKI:0.00
PC:17440     Total:21      MisBP:1   MisRate:4.76%    MPKI:0.00
PC:137ec     Total:4      MisBP:1   MisRate:25.00%    MPKI:0.00
PC:13bfe     Total:39477      MisBP:1   MisRate:0.00%    MPKI:0.00
PC:13690     Total:26      MisBP:1   MisRate:3.85%    MPKI:0.00
PC:184cc     Total:458884      MisBP:2   MisRate:0.00%    MPKI:0.00
PC:17b2e     Total:9940      MisBP:2   MisRate:0.02%    MPKI:0.00
PC:29404     Total:733      MisBP:2   MisRate:0.27%    MPKI:0.00
PC:17806     Total:14      MisBP:2   MisRate:14.29%    MPKI:0.00
PC:14622     Total:26547      MisBP:2   MisRate:0.01%    MPKI:0.00
PC:1788e     Total:24      MisBP:2   MisRate:8.33%    MPKI:0.00
PC:17018     Total:24      MisBP:3   MisRate:12.50%    MPKI:0.00
PC:13ea6     Total:181028      MisBP:3   MisRate:0.00%    MPKI:0.00
PC:179c8     Total:36      MisBP:3   MisRate:8.33%    MPKI:0.00
PC:17a30     Total:29      MisBP:3   MisRate:10.34%    MPKI:0.00
PC:137c4     Total:2017      MisBP:4   MisRate:0.20%    MPKI:0.00
PC:12b78     Total:589      MisBP:4   MisRate:0.68%    MPKI:0.00
PC:14604     Total:565      MisBP:4   MisRate:0.71%    MPKI:0.00
PC:13644     Total:88      MisBP:5   MisRate:5.68%    MPKI:0.00
PC:186ea     Total:2048      MisBP:5   MisRate:0.24%    MPKI:0.00
PC:10188     Total:95      MisBP:5   MisRate:5.26%    MPKI:0.00
PC:16c6c     Total:28      MisBP:6   MisRate:21.43%    MPKI:0.00
PC:186fe     Total:2212      MisBP:6   MisRate:0.27%    MPKI:0.00
PC:29354     Total:264      MisBP:7   MisRate:2.65%    MPKI:0.00
PC:29470     Total:920      MisBP:7   MisRate:0.76%    MPKI:0.00
PC:1874e     Total:122      MisBP:8   MisRate:6.56%    MPKI:0.00
PC:17426     Total:29      MisBP:8   MisRate:27.59%    MPKI:0.00
PC:12b66     Total:3415      MisBP:8   MisRate:0.23%    MPKI:0.00
PC:16efe     Total:67      MisBP:8   MisRate:11.94%    MPKI:0.00
PC:16d28     Total:138      MisBP:9   MisRate:6.52%    MPKI:0.00
PC:178e0     Total:31      MisBP:9   MisRate:29.03%    MPKI:0.00
PC:17a1c     Total:31      MisBP:10   MisRate:32.26%    MPKI:0.00
PC:1776e     Total:25      MisBP:10   MisRate:40.00%    MPKI:0.00
PC:16e7c     Total:281      MisBP:11   MisRate:3.91%    MPKI:0.00
PC:13544     Total:209      MisBP:11   MisRate:5.26%    MPKI:0.00
PC:172fc     Total:156      MisBP:12   MisRate:7.69%    MPKI:0.00
PC:16c52     Total:40      MisBP:12   MisRate:30.00%    MPKI:0.00
PC:1730e     Total:1652      MisBP:12   MisRate:0.73%    MPKI:0.00
PC:16f30     Total:1625      MisBP:13   MisRate:0.80%    MPKI:0.00
PC:17244     Total:38      MisBP:14   MisRate:36.84%    MPKI:0.00
PC:17946     Total:38      MisBP:14   MisRate:36.84%    MPKI:0.00
PC:171dc     Total:32      MisBP:14   MisRate:43.75%    MPKI:0.00
PC:176fe     Total:34      MisBP:14   MisRate:41.18%    MPKI:0.00
PC:13672     Total:2096      MisBP:15   MisRate:0.72%    MPKI:0.00
PC:173ce     Total:1909      MisBP:15   MisRate:0.79%    MPKI:0.00
PC:17174     Total:33      MisBP:15   MisRate:45.45%    MPKI:0.00
PC:173a4     Total:215      MisBP:15   MisRate:6.98%    MPKI:0.00
PC:10158     Total:2909      MisBP:16   MisRate:0.55%    MPKI:0.00
PC:17cc8     Total:54      MisBP:17   MisRate:31.48%    MPKI:0.00
PC:172d6     Total:166      MisBP:17   MisRate:10.24%    MPKI:0.00
PC:14700     Total:105      MisBP:18   MisRate:17.14%    MPKI:0.00
PC:177dc     Total:40      MisBP:18   MisRate:45.00%    MPKI:0.00
PC:16d7c     Total:148      MisBP:18   MisRate:12.16%    MPKI:0.00
PC:13668     Total:2264      MisBP:18   MisRate:0.80%    MPKI:0.00
PC:17aea     Total:48      MisBP:18   MisRate:37.50%    MPKI:0.00
PC:17320     Total:210      MisBP:18   MisRate:8.57%    MPKI:0.00
PC:1787a     Total:40      MisBP:18   MisRate:45.00%    MPKI:0.00
PC:179b4     Total:51      MisBP:19   MisRate:37.25%    MPKI:0.00
PC:18a5e     Total:36      MisBP:22   MisRate:61.11%    MPKI:0.00
PC:29818     Total:181      MisBP:23   MisRate:12.71%    MPKI:0.00
PC:17658     Total:212299      MisBP:23   MisRate:0.01%    MPKI:0.00
PC:1358e     Total:213857      MisBP:24   MisRate:0.01%    MPKI:0.00
PC:16f68     Total:158      MisBP:24   MisRate:15.19%    MPKI:0.00
PC:17490     Total:220      MisBP:25   MisRate:11.36%    MPKI:0.00
PC:146c2     Total:317      MisBP:27   MisRate:8.52%    MPKI:0.00
PC:186d0     Total:6305      MisBP:27   MisRate:0.43%    MPKI:0.00
PC:1362e     Total:163      MisBP:29   MisRate:17.79%    MPKI:0.00
PC:297a0     Total:173      MisBP:36   MisRate:20.81%    MPKI:0.00
PC:18a36     Total:2500752      MisBP:37   MisRate:0.00%    MPKI:0.00
PC:14606     Total:565      MisBP:37   MisRate:6.55%    MPKI:0.00
PC:18f7c     Total:878      MisBP:44   MisRate:5.01%    MPKI:0.00
PC:1872a     Total:43133      MisBP:45   MisRate:0.10%    MPKI:0.00
PC:29348     Total:861      MisBP:48   MisRate:5.57%    MPKI:0.00
PC:187a2     Total:49878      MisBP:51   MisRate:0.10%    MPKI:0.00
PC:16cc0     Total:268050      MisBP:53   MisRate:0.02%    MPKI:0.00
PC:13bae     Total:3148457      MisBP:54   MisRate:0.00%    MPKI:0.00
PC:293c4     Total:791      MisBP:56   MisRate:7.08%    MPKI:0.00
PC:18f04     Total:4970      MisBP:59   MisRate:1.19%    MPKI:0.00
PC:16ed0     Total:4714      MisBP:63   MisRate:1.34%    MPKI:0.00
PC:13592     Total:213631      MisBP:64   MisRate:0.03%    MPKI:0.00
PC:13614     Total:165      MisBP:70   MisRate:42.42%    MPKI:0.00
PC:18ed6     Total:516      MisBP:72   MisRate:13.95%    MPKI:0.00
PC:1353e     Total:2017      MisBP:76   MisRate:3.77%    MPKI:0.00
PC:14708     Total:96      MisBP:78   MisRate:81.25%    MPKI:0.00
PC:146b6     Total:2832      MisBP:80   MisRate:2.82%    MPKI:0.00
PC:174bc     Total:1208048      MisBP:81   MisRate:0.01%    MPKI:0.00
PC:10ecc     Total:135      MisBP:82   MisRate:60.74%    MPKI:0.00
PC:18f26     Total:1641      MisBP:85   MisRate:5.18%    MPKI:0.00
PC:18ee6     Total:1317      MisBP:86   MisRate:6.53%    MPKI:0.00
PC:146f0     Total:1127      MisBP:96   MisRate:8.52%    MPKI:0.00
PC:16aa0     Total:120      MisBP:97   MisRate:80.83%    MPKI:0.00
PC:1360c     Total:1024      MisBP:98   MisRate:9.57%    MPKI:0.00
PC:10f9c     Total:1988      MisBP:100   MisRate:5.03%    MPKI:0.00
PC:293d0     Total:671      MisBP:100   MisRate:14.90%    MPKI:0.00
PC:18f16     Total:1266      MisBP:101   MisRate:7.98%    MPKI:0.00
PC:29654     Total:7800      MisBP:102   MisRate:1.31%    MPKI:0.00
PC:18f5a     Total:623      MisBP:107   MisRate:17.17%    MPKI:0.00
PC:175c0     Total:434481      MisBP:122   MisRate:0.03%    MPKI:0.00
PC:16f58     Total:2652      MisBP:125   MisRate:4.71%    MPKI:0.00
PC:16e70     Total:11362      MisBP:126   MisRate:1.11%    MPKI:0.00
PC:1104e     Total:990      MisBP:128   MisRate:12.93%    MPKI:0.00
PC:111de     Total:660      MisBP:133   MisRate:20.15%    MPKI:0.00
PC:17398     Total:1829      MisBP:142   MisRate:7.76%    MPKI:0.00
PC:1867e     Total:1279      MisBP:156   MisRate:12.20%    MPKI:0.00
PC:1848c     Total:936793      MisBP:162   MisRate:0.02%    MPKI:0.00
PC:1737a     Total:1956      MisBP:163   MisRate:8.33%    MPKI:0.00
PC:29804     Total:9041      MisBP:164   MisRate:1.81%    MPKI:0.00
PC:18644     Total:237580      MisBP:165   MisRate:0.07%    MPKI:0.00
PC:173bc     Total:1910      MisBP:174   MisRate:9.11%    MPKI:0.00
PC:18ed0     Total:64610      MisBP:210   MisRate:0.33%    MPKI:0.00
PC:135c6     Total:796832      MisBP:214   MisRate:0.03%    MPKI:0.00
PC:1738c     Total:1714      MisBP:240   MisRate:14.00%    MPKI:0.00
PC:174ce     Total:1525409      MisBP:344   MisRate:0.02%    MPKI:0.00
PC:1359a     Total:213388      MisBP:363   MisRate:0.17%    MPKI:0.00
PC:16dce     Total:4352      MisBP:448   MisRate:10.29%    MPKI:0.00
PC:29454     Total:2243      MisBP:487   MisRate:21.71%    MPKI:0.00
PC:186bc     Total:2482      MisBP:497   MisRate:20.02%    MPKI:0.00
PC:17b80     Total:71956      MisBP:551   MisRate:0.77%    MPKI:0.00
PC:18674     Total:27139      MisBP:792   MisRate:2.92%    MPKI:0.00
PC:13bd0     Total:3062278      MisBP:803   MisRate:0.03%    MPKI:0.00
PC:16de0     Total:4206      MisBP:947   MisRate:22.52%    MPKI:0.00
PC:16e3e     Total:15170      MisBP:1072   MisRate:7.07%    MPKI:0.00
PC:146a4     Total:5216      MisBP:1703   MisRate:32.65%    MPKI:0.01
PC:184f8     Total:4178849      MisBP:1872   MisRate:0.04%    MPKI:0.01
PC:146b0     Total:4119      MisBP:2096   MisRate:50.89%    MPKI:0.01
PC:13bf6     Total:3182926      MisBP:2588   MisRate:0.08%    MPKI:0.01
PC:146a6     Total:5211      MisBP:2752   MisRate:52.81%    MPKI:0.01
PC:16e50     Total:13531      MisBP:2866   MisRate:21.18%    MPKI:0.01
PC:17084     Total:193937      MisBP:6758   MisRate:3.48%    MPKI:0.02
PC:17b64     Total:102632      MisBP:6794   MisRate:6.62%    MPKI:0.02
PC:13efe     Total:86245      MisBP:6838   MisRate:7.93%    MPKI:0.02
PC:17632     Total:1045930      MisBP:8930   MisRate:0.85%    MPKI:0.03
PC:18782     Total:40609      MisBP:10856   MisRate:26.73%    MPKI:0.04
PC:17584     Total:1590577      MisBP:11828   MisRate:0.74%    MPKI:0.04
PC:185d8     Total:167451      MisBP:12349   MisRate:7.37%    MPKI:0.04
PC:1759c     Total:1402575      MisBP:15649   MisRate:1.12%    MPKI:0.05
PC:18796     Total:186427      MisBP:17226   MisRate:9.24%    MPKI:0.06
PC:17b76     Total:93718      MisBP:24353   MisRate:25.99%    MPKI:0.08
PC:13eb0     Total:180702      MisBP:29631   MisRate:16.40%    MPKI:0.10
PC:135aa     Total:772966      MisBP:54260   MisRate:7.02%    MPKI:0.18
PC:1849a     Total:906229      MisBP:94464   MisRate:10.42%    MPKI:0.30
PC:174e8     Total:1123297      MisBP:102322   MisRate:9.11%    MPKI:0.33
PC:18628     Total:406437      MisBP:113209   MisRate:27.85%    MPKI:0.37
PC:1754e     Total:1142153      MisBP:116467   MisRate:10.20%    MPKI:0.38
PC:17500     Total:981130      MisBP:118784   MisRate:12.11%    MPKI:0.38
PC:17690     Total:1168526      MisBP:123881   MisRate:10.60%    MPKI:0.40
PC:185f2     Total:2971336      MisBP:124133   MisRate:4.18%    MPKI:0.40
PC:174d4     Total:1495713      MisBP:139988   MisRate:9.36%    MPKI:0.45
PC:17622     Total:962689      MisBP:142632   MisRate:14.82%    MPKI:0.46
PC:13bca     Total:3122800      MisBP:145062   MisRate:4.65%    MPKI:0.47
PC:170ba     Total:2272756      MisBP:154325   MisRate:6.79%    MPKI:0.50
PC:1753e     Total:959822      MisBP:176894   MisRate:18.43%    MPKI:0.57
PC:184f2     Total:4386314      MisBP:179253   MisRate:4.09%    MPKI:0.58
PC:175f8     Total:1692321      MisBP:249654   MisRate:14.75%    MPKI:0.81
PC:16cf6     Total:3352817      MisBP:257293   MisRate:7.67%    MPKI:0.83
PC:17564     Total:5272780      MisBP:421899   MisRate:8.00%    MPKI:1.36
PC:17066     Total:2875225      MisBP:425305   MisRate:14.79%    MPKI:1.37
PC:16ca2     Total:4044421      MisBP:659037   MisRate:16.29%    MPKI:2.13
Totfetch:629511401  TotInsts:310000004  TotMis : inf%   MPKI : 12.82
=============finish sim!!!!!!=============
Done running SimPoint!
