Global frequency set at 1000000000000 ticks per second
 Register [printBranch()] ExitCallback !!!!!!! 
gem5 Simulator System.  https://www.gem5.org
gem5 is copyrighted software; use the --copyright option for details.

gem5 version 22.0.0.2
gem5 compiled Sep  7 2022 00:42:18
gem5 started Sep  7 2022 07:09:43
gem5 executing on a100, pid 2842550
command line: /data/zxf/gem5/gem5-prof/build/ARM/gem5.fast --outdir=/data/zxf/checkpoint/spec2006/401.bzip2/prof/bzip2_ckp_17 /data/zxf/gem5/gem5-prof/configs/example/se.py --cpu-type O3CPU --cpu-clock 1GHz --num-cpu 1 --l1d-hwp-type=BOPPrefetcher --caches --l2cache --l1i_size 32kB --l1d_size 32kB --l2_size 1MB --l1i_assoc 8 --l1d_assoc 8 --l2_assoc 16 --cacheline_size 64 --mem-type DDR3_2133_8x8 --mem-size 16GB --restore-simpoint-checkpoint -r 17 --checkpoint-dir /data/zxf/checkpoint/spec2006/401.bzip2/ckpt -c bzip2_base.gcc41-64bit -o 'input.source 280'

info: Standard input is not a terminal, disabling listeners.
Resuming from /data/zxf/checkpoint/spec2006/401.bzip2/ckpt/cpt.simpoint_16_inst_414890000000_weight_0.058415_interval_300000000_warmup_10000000
Resuming from SimPoint #16, start_inst:414890000000, weight:0.058415, interval:300000000, warmup:10000000
Switch at curTick count:10000
Switched CPUS @ tick 255878415860000
[(<m5.objects.ArmCPU.ArmAtomicSimpleCPU object at 0x7fed92140bb0>, <m5.objects.ArmCPU.ArmO3CPU object at 0x7fed92158e20>)]
switching cpus



+++++++++++++++++++++++++zxf print simpoint+++++++++++++++++++++++++++
Warmed up! Dumping and resetting stats!


=============start sim!!!!!!=============
PC:13586     Total:714      MisBP:0   MisRate:0.00%    MPKI:0.00
PC:13bc8     Total:3306143      MisBP:0   MisRate:0.00%    MPKI:0.00
PC:17052     Total:1964613      MisBP:0   MisRate:0.00%    MPKI:0.00
PC:17080     Total:185327      MisBP:0   MisRate:0.00%    MPKI:0.00
PC:10204     Total:58      MisBP:0   MisRate:0.00%    MPKI:0.00
PC:29720     Total:626      MisBP:0   MisRate:0.00%    MPKI:0.00
PC:184ca     Total:476336      MisBP:0   MisRate:0.00%    MPKI:0.00
PC:361b2     Total:1777      MisBP:0   MisRate:0.00%    MPKI:0.00
PC:17942     Total:16      MisBP:0   MisRate:0.00%    MPKI:0.00
PC:10208     Total:58      MisBP:0   MisRate:0.00%    MPKI:0.00
PC:29724     Total:626      MisBP:0   MisRate:0.00%    MPKI:0.00
PC:1708a     Total:177922      MisBP:0   MisRate:0.00%    MPKI:0.00
PC:170a6     Total:172024      MisBP:0   MisRate:0.00%    MPKI:0.00
PC:17c54     Total:8785      MisBP:0   MisRate:0.00%    MPKI:0.00
PC:184fe     Total:12326      MisBP:0   MisRate:0.00%    MPKI:0.00
PC:1704e     Total:1964784      MisBP:0   MisRate:0.00%    MPKI:0.00
PC:361ea     Total:135      MisBP:0   MisRate:0.00%    MPKI:0.00
PC:18502     Total:698      MisBP:0   MisRate:0.00%    MPKI:0.00
PC:1358c     Total:180939      MisBP:0   MisRate:0.00%    MPKI:0.00
PC:18508     Total:698      MisBP:0   MisRate:0.00%    MPKI:0.00
PC:10ea0     Total:131      MisBP:0   MisRate:0.00%    MPKI:0.00
PC:1365e     Total:2029      MisBP:0   MisRate:0.00%    MPKI:0.00
PC:185da     Total:125532      MisBP:0   MisRate:0.00%    MPKI:0.00
PC:16c7e     Total:2727141      MisBP:0   MisRate:0.00%    MPKI:0.00
PC:174cc     Total:1567602      MisBP:0   MisRate:0.00%    MPKI:0.00
PC:29358     Total:242      MisBP:0   MisRate:0.00%    MPKI:0.00
PC:184f6     Total:4133349      MisBP:0   MisRate:0.00%    MPKI:0.00
PC:361de     Total:137      MisBP:0   MisRate:0.00%    MPKI:0.00
PC:1357a     Total:738      MisBP:0   MisRate:0.00%    MPKI:0.00
PC:17044     Total:1965407      MisBP:0   MisRate:0.00%    MPKI:0.00
PC:29754     Total:607      MisBP:0   MisRate:0.00%    MPKI:0.00
PC:170bc     Total:2222450      MisBP:0   MisRate:0.00%    MPKI:0.00
PC:2975c     Total:607      MisBP:0   MisRate:0.00%    MPKI:0.00
PC:18680     Total:85      MisBP:0   MisRate:0.00%    MPKI:0.00
PC:36242     Total:3      MisBP:0   MisRate:0.00%    MPKI:0.00
PC:135de     Total:1092      MisBP:0   MisRate:0.00%    MPKI:0.00
PC:1855a     Total:15571      MisBP:0   MisRate:0.00%    MPKI:0.00
PC:13bb2     Total:3324278      MisBP:0   MisRate:0.00%    MPKI:0.00
PC:36246     Total:3      MisBP:0   MisRate:0.00%    MPKI:0.00
PC:135e2     Total:1092      MisBP:0   MisRate:0.00%    MPKI:0.00
PC:1855e     Total:15570      MisBP:0   MisRate:0.00%    MPKI:0.00
PC:1703e     Total:1965859      MisBP:0   MisRate:0.00%    MPKI:0.00
PC:13bb8     Total:3320589      MisBP:0   MisRate:0.00%    MPKI:0.00
PC:17042     Total:1965690      MisBP:0   MisRate:0.00%    MPKI:0.00
PC:1756e     Total:1664945      MisBP:0   MisRate:0.00%    MPKI:0.00
PC:101c8     Total:63      MisBP:0   MisRate:0.00%    MPKI:0.00
PC:296e4     Total:628      MisBP:0   MisRate:0.00%    MPKI:0.00
PC:3624e     Total:3      MisBP:0   MisRate:0.00%    MPKI:0.00
PC:135ea     Total:1088      MisBP:0   MisRate:0.00%    MPKI:0.00
PC:18566     Total:15426      MisBP:0   MisRate:0.00%    MPKI:0.00
PC:13bbe     Total:3307761      MisBP:0   MisRate:0.00%    MPKI:0.00
PC:17046     Total:1965123      MisBP:0   MisRate:0.00%    MPKI:0.00
PC:1704a     Total:1965200      MisBP:0   MisRate:0.00%    MPKI:0.00
PC:13bc4     Total:3306273      MisBP:0   MisRate:0.00%    MPKI:0.00
PC:1704c     Total:1964968      MisBP:0   MisRate:0.00%    MPKI:0.00
PC:1790a     Total:14      MisBP:0   MisRate:0.00%    MPKI:0.00
PC:101d0     Total:63      MisBP:0   MisRate:0.00%    MPKI:0.00
PC:296ec     Total:628      MisBP:0   MisRate:0.00%    MPKI:0.00
PC:18eda     Total:60      MisBP:0   MisRate:0.00%    MPKI:0.00
PC:17696     Total:1104212      MisBP:0   MisRate:0.00%    MPKI:0.00
PC:18ed4     Total:322      MisBP:0   MisRate:0.00%    MPKI:0.00
PC:13f58     Total:823      MisBP:0   MisRate:0.00%    MPKI:0.00
PC:13660     Total:2029      MisBP:0   MisRate:0.00%    MPKI:0.00
PC:185dc     Total:125528      MisBP:0   MisRate:0.00%    MPKI:0.00
PC:10ea2     Total:131      MisBP:0   MisRate:0.00%    MPKI:0.00
PC:16ab4     Total:15      MisBP:0   MisRate:0.00%    MPKI:0.00
PC:16d9e     Total:207      MisBP:0   MisRate:0.00%    MPKI:0.00
PC:145e0     Total:610      MisBP:0   MisRate:0.00%    MPKI:0.00
PC:1769a     Total:1089106      MisBP:0   MisRate:0.00%    MPKI:0.00
PC:10ea4     Total:131      MisBP:0   MisRate:0.00%    MPKI:0.00
PC:16ab6     Total:15      MisBP:0   MisRate:0.00%    MPKI:0.00
PC:145e2     Total:610      MisBP:0   MisRate:0.00%    MPKI:0.00
PC:1769c     Total:1088934      MisBP:0   MisRate:0.00%    MPKI:0.00
PC:145dc     Total:6123      MisBP:0   MisRate:0.00%    MPKI:0.00
PC:13f5e     Total:1      MisBP:0   MisRate:0.00%    MPKI:0.00
PC:187f0     Total:9443      MisBP:0   MisRate:0.00%    MPKI:0.00
PC:13664     Total:2029      MisBP:0   MisRate:0.00%    MPKI:0.00
PC:185e0     Total:125522      MisBP:0   MisRate:0.00%    MPKI:0.00
PC:10ea6     Total:131      MisBP:0   MisRate:0.00%    MPKI:0.00
PC:16ab8     Total:15      MisBP:0   MisRate:0.00%    MPKI:0.00
PC:16da2     Total:207      MisBP:0   MisRate:0.00%    MPKI:0.00
PC:145e4     Total:610      MisBP:0   MisRate:0.00%    MPKI:0.00
PC:1769e     Total:1088575      MisBP:0   MisRate:0.00%    MPKI:0.00
PC:13f60     Total:1      MisBP:0   MisRate:0.00%    MPKI:0.00
PC:13666     Total:2029      MisBP:0   MisRate:0.00%    MPKI:0.00
PC:10ea8     Total:131      MisBP:0   MisRate:0.00%    MPKI:0.00
PC:16aba     Total:15      MisBP:0   MisRate:0.00%    MPKI:0.00
PC:1768a     Total:1195023      MisBP:0   MisRate:0.00%    MPKI:0.00
PC:18624     Total:328997      MisBP:0   MisRate:0.00%    MPKI:0.00
PC:174e6     Total:1152954      MisBP:0   MisRate:0.00%    MPKI:0.00
PC:17aba     Total:10      MisBP:0   MisRate:0.00%    MPKI:0.00
PC:12b3e     Total:621      MisBP:0   MisRate:0.00%    MPKI:0.00
PC:1751a     Total:1039803      MisBP:0   MisRate:0.00%    MPKI:0.00
PC:18678     Total:771      MisBP:0   MisRate:0.00%    MPKI:0.00
PC:17666     Total:201622      MisBP:0   MisRate:0.00%    MPKI:0.00
PC:18ea4     Total:40      MisBP:0   MisRate:0.00%    MPKI:0.00
PC:13f28     Total:51500      MisBP:0   MisRate:0.00%    MPKI:0.00
PC:185c6     Total:126797      MisBP:0   MisRate:0.00%    MPKI:0.00
PC:10e8c     Total:1374      MisBP:0   MisRate:0.00%    MPKI:0.00
PC:17684     Total:1195149      MisBP:0   MisRate:0.00%    MPKI:0.00
PC:17688     Total:1195263      MisBP:0   MisRate:0.00%    MPKI:0.00
PC:361e2     Total:137      MisBP:0   MisRate:0.00%    MPKI:0.00
PC:1768e     Total:1193108      MisBP:0   MisRate:0.00%    MPKI:0.00
PC:10e98     Total:132      MisBP:0   MisRate:0.00%    MPKI:0.00
PC:16aaa     Total:15      MisBP:0   MisRate:0.00%    MPKI:0.00
PC:18ece     Total:41354      MisBP:0   MisRate:0.00%    MPKI:0.00
PC:13f52     Total:829      MisBP:0   MisRate:0.00%    MPKI:0.00
PC:13658     Total:163      MisBP:0   MisRate:0.00%    MPKI:0.00
PC:185d4     Total:126781      MisBP:0   MisRate:0.00%    MPKI:0.00
PC:10e9a     Total:132      MisBP:0   MisRate:0.00%    MPKI:0.00
PC:16aac     Total:15      MisBP:0   MisRate:0.00%    MPKI:0.00
PC:17692     Total:1106879      MisBP:0   MisRate:0.00%    MPKI:0.00
PC:13f54     Total:829      MisBP:0   MisRate:0.00%    MPKI:0.00
PC:10e9e     Total:132      MisBP:0   MisRate:0.00%    MPKI:0.00
PC:16ab0     Total:15      MisBP:0   MisRate:0.00%    MPKI:0.00
PC:184ea     Total:8765298      MisBP:0   MisRate:0.00%    MPKI:0.00
PC:184d6     Total:466471      MisBP:0   MisRate:0.00%    MPKI:0.00
PC:1355c     Total:755      MisBP:0   MisRate:0.00%    MPKI:0.00
PC:184d8     Total:465940      MisBP:0   MisRate:0.00%    MPKI:0.00
PC:361c4     Total:174      MisBP:0   MisRate:0.00%    MPKI:0.00
PC:184dc     Total:465382      MisBP:0   MisRate:0.00%    MPKI:0.00
PC:361c8     Total:174      MisBP:0   MisRate:0.00%    MPKI:0.00
PC:13564     Total:755      MisBP:0   MisRate:0.00%    MPKI:0.00
PC:184e0     Total:465180      MisBP:0   MisRate:0.00%    MPKI:0.00
PC:17c3a     Total:12600      MisBP:0   MisRate:0.00%    MPKI:0.00
PC:184e4     Total:463712      MisBP:0   MisRate:0.00%    MPKI:0.00
PC:1356c     Total:738      MisBP:0   MisRate:0.00%    MPKI:0.00
PC:184e8     Total:4399769      MisBP:0   MisRate:0.00%    MPKI:0.00
PC:361d2     Total:174      MisBP:0   MisRate:0.00%    MPKI:0.00
PC:1356e     Total:738      MisBP:0   MisRate:0.00%    MPKI:0.00
PC:1355a     Total:756      MisBP:0   MisRate:0.00%    MPKI:0.00
PC:361d6     Total:137      MisBP:0   MisRate:0.00%    MPKI:0.00
PC:13572     Total:738      MisBP:0   MisRate:0.00%    MPKI:0.00
PC:184ee     Total:4347810      MisBP:0   MisRate:0.00%    MPKI:0.00
PC:361da     Total:137      MisBP:0   MisRate:0.00%    MPKI:0.00
PC:13578     Total:738      MisBP:0   MisRate:0.00%    MPKI:0.00
PC:184f4     Total:4133630      MisBP:0   MisRate:0.00%    MPKI:0.00
PC:29280     Total:1      MisBP:0   MisRate:0.00%    MPKI:0.00
PC:17c4e     Total:8852      MisBP:0   MisRate:0.00%    MPKI:0.00
PC:361e4     Total:136      MisBP:0   MisRate:0.00%    MPKI:0.00
PC:13580     Total:714      MisBP:0   MisRate:0.00%    MPKI:0.00
PC:184fc     Total:13068      MisBP:0   MisRate:0.00%    MPKI:0.00
PC:18516     Total:378645      MisBP:0   MisRate:0.00%    MPKI:0.00
PC:1359e     Total:180660      MisBP:0   MisRate:0.00%    MPKI:0.00
PC:17c18     Total:16009      MisBP:0   MisRate:0.00%    MPKI:0.00
PC:12b52     Total:1292      MisBP:0   MisRate:0.00%    MPKI:0.00
PC:13536     Total:846      MisBP:0   MisRate:0.00%    MPKI:0.00
PC:184b2     Total:496184      MisBP:0   MisRate:0.00%    MPKI:0.00
PC:13538     Total:846      MisBP:0   MisRate:0.00%    MPKI:0.00
PC:184b4     Total:496066      MisBP:0   MisRate:0.00%    MPKI:0.00
PC:1353a     Total:844      MisBP:0   MisRate:0.00%    MPKI:0.00
PC:184b6     Total:495949      MisBP:0   MisRate:0.00%    MPKI:0.00
PC:184ba     Total:495804      MisBP:0   MisRate:0.00%    MPKI:0.00
PC:29246     Total:6      MisBP:0   MisRate:0.00%    MPKI:0.00
PC:17c14     Total:16011      MisBP:0   MisRate:0.00%    MPKI:0.00
PC:13542     Total:168      MisBP:0   MisRate:0.00%    MPKI:0.00
PC:184be     Total:495357      MisBP:0   MisRate:0.00%    MPKI:0.00
PC:184c0     Total:476919      MisBP:0   MisRate:0.00%    MPKI:0.00
PC:2924a     Total:6      MisBP:0   MisRate:0.00%    MPKI:0.00
PC:1851a     Total:1      MisBP:0   MisRate:0.00%    MPKI:0.00
PC:184c2     Total:476710      MisBP:0   MisRate:0.00%    MPKI:0.00
PC:13548     Total:2      MisBP:0   MisRate:0.00%    MPKI:0.00
PC:184c4     Total:476637      MisBP:0   MisRate:0.00%    MPKI:0.00
PC:1354c     Total:2      MisBP:0   MisRate:0.00%    MPKI:0.00
PC:361b0     Total:178      MisBP:0   MisRate:0.00%    MPKI:0.00
PC:184c8     Total:476480      MisBP:0   MisRate:0.00%    MPKI:0.00
PC:29252     Total:6      MisBP:0   MisRate:0.00%    MPKI:0.00
PC:17c20     Total:15001      MisBP:0   MisRate:0.00%    MPKI:0.00
PC:13550     Total:2      MisBP:0   MisRate:0.00%    MPKI:0.00
PC:184cc     Total:476244      MisBP:0   MisRate:0.00%    MPKI:0.00
PC:184d0     Total:476126      MisBP:0   MisRate:0.00%    MPKI:0.00
PC:184d4     Total:466895      MisBP:0   MisRate:0.00%    MPKI:0.00
PC:361be     Total:174      MisBP:0   MisRate:0.00%    MPKI:0.00
PC:293cc     Total:714      MisBP:0   MisRate:0.00%    MPKI:0.00
PC:1883c     Total:5      MisBP:0   MisRate:0.00%    MPKI:0.00
PC:13e94     Total:149793      MisBP:0   MisRate:0.00%    MPKI:0.00
PC:293c0     Total:828      MisBP:0   MisRate:0.00%    MPKI:0.00
PC:175d6     Total:420449      MisBP:0   MisRate:0.00%    MPKI:0.00
PC:18840     Total:4      MisBP:0   MisRate:0.00%    MPKI:0.00
PC:1872e     Total:44      MisBP:0   MisRate:0.00%    MPKI:0.00
PC:175da     Total:420384      MisBP:0   MisRate:0.00%    MPKI:0.00
PC:18844     Total:4      MisBP:0   MisRate:0.00%    MPKI:0.00
PC:13e9c     Total:149745      MisBP:0   MisRate:0.00%    MPKI:0.00
PC:175dc     Total:419958      MisBP:0   MisRate:0.00%    MPKI:0.00
PC:18846     Total:4      MisBP:0   MisRate:0.00%    MPKI:0.00
PC:175e0     Total:419737      MisBP:0   MisRate:0.00%    MPKI:0.00
PC:1884a     Total:4      MisBP:0   MisRate:0.00%    MPKI:0.00
PC:13ea2     Total:149621      MisBP:0   MisRate:0.00%    MPKI:0.00
PC:175d2     Total:427060      MisBP:0   MisRate:0.00%    MPKI:0.00
PC:175e2     Total:419608      MisBP:0   MisRate:0.00%    MPKI:0.00
PC:175e4     Total:419469      MisBP:0   MisRate:0.00%    MPKI:0.00
PC:13ea6     Total:149615      MisBP:0   MisRate:0.00%    MPKI:0.00
PC:175e6     Total:419258      MisBP:0   MisRate:0.00%    MPKI:0.00
PC:18850     Total:3      MisBP:0   MisRate:0.00%    MPKI:0.00
PC:13ea8     Total:149608      MisBP:0   MisRate:0.00%    MPKI:0.00
PC:175e8     Total:419115      MisBP:0   MisRate:0.00%    MPKI:0.00
PC:13eaa     Total:149603      MisBP:0   MisRate:0.00%    MPKI:0.00
PC:170b0     Total:2300542      MisBP:0   MisRate:0.00%    MPKI:0.00
PC:29750     Total:607      MisBP:0   MisRate:0.00%    MPKI:0.00
PC:170b4     Total:2294207      MisBP:0   MisRate:0.00%    MPKI:0.00
PC:1357e     Total:737      MisBP:0   MisRate:0.00%    MPKI:0.00
PC:184fa     Total:13443      MisBP:0   MisRate:0.00%    MPKI:0.00
PC:293b4     Total:1688      MisBP:0   MisRate:0.00%    MPKI:0.00
PC:292a6     Total:1      MisBP:0   MisRate:0.00%    MPKI:0.00
PC:17c74     Total:3858      MisBP:0   MisRate:0.00%    MPKI:0.00
PC:135a8     Total:778722      MisBP:0   MisRate:0.00%    MPKI:0.00
PC:18524     Total:1      MisBP:0   MisRate:0.00%    MPKI:0.00
PC:135ae     Total:819602      MisBP:0   MisRate:0.00%    MPKI:0.00
PC:1852a     Total:1      MisBP:0   MisRate:0.00%    MPKI:0.00
PC:18536     Total:1      MisBP:0   MisRate:0.00%    MPKI:0.00
PC:18714     Total:519939      MisBP:0   MisRate:0.00%    MPKI:0.00
PC:175c4     Total:429078      MisBP:0   MisRate:0.00%    MPKI:0.00
PC:293b0     Total:172      MisBP:0   MisRate:0.00%    MPKI:0.00
PC:175c6     Total:429024      MisBP:0   MisRate:0.00%    MPKI:0.00
PC:138b4     Total:2      MisBP:0   MisRate:0.00%    MPKI:0.00
PC:18830     Total:5      MisBP:0   MisRate:0.00%    MPKI:0.00
PC:16da4     Total:200      MisBP:0   MisRate:0.00%    MPKI:0.00
PC:175ca     Total:428413      MisBP:0   MisRate:0.00%    MPKI:0.00
PC:138b8     Total:2      MisBP:0   MisRate:0.00%    MPKI:0.00
PC:18834     Total:5      MisBP:0   MisRate:0.00%    MPKI:0.00
PC:13e8c     Total:149848      MisBP:0   MisRate:0.00%    MPKI:0.00
PC:175cc     Total:428383      MisBP:0   MisRate:0.00%    MPKI:0.00
PC:13e8e     Total:149823      MisBP:0   MisRate:0.00%    MPKI:0.00
PC:293b8     Total:843      MisBP:0   MisRate:0.00%    MPKI:0.00
PC:175ce     Total:428416      MisBP:0   MisRate:0.00%    MPKI:0.00
PC:18838     Total:5      MisBP:0   MisRate:0.00%    MPKI:0.00
PC:13e90     Total:149804      MisBP:0   MisRate:0.00%    MPKI:0.00
PC:18724     Total:41209      MisBP:0   MisRate:0.00%    MPKI:0.00
PC:175d0     Total:428007      MisBP:0   MisRate:0.00%    MPKI:0.00
PC:293bc     Total:841      MisBP:0   MisRate:0.00%    MPKI:0.00
PC:14602     Total:606      MisBP:0   MisRate:0.00%    MPKI:0.00
PC:16aa4     Total:15      MisBP:0   MisRate:0.00%    MPKI:0.00
PC:16aa8     Total:15      MisBP:0   MisRate:0.00%    MPKI:0.00
PC:16ac2     Total:15      MisBP:0   MisRate:0.00%    MPKI:0.00
PC:18f96     Total:94      MisBP:0   MisRate:0.00%    MPKI:0.00
PC:145ee     Total:609      MisBP:0   MisRate:0.00%    MPKI:0.00
PC:16ac6     Total:15      MisBP:0   MisRate:0.00%    MPKI:0.00
PC:18f9a     Total:94      MisBP:0   MisRate:0.00%    MPKI:0.00
PC:145f2     Total:609      MisBP:0   MisRate:0.00%    MPKI:0.00
PC:16acc     Total:15      MisBP:0   MisRate:0.00%    MPKI:0.00
PC:18fa0     Total:94      MisBP:0   MisRate:0.00%    MPKI:0.00
PC:145f8     Total:609      MisBP:0   MisRate:0.00%    MPKI:0.00
PC:16ad6     Total:15      MisBP:0   MisRate:0.00%    MPKI:0.00
PC:18faa     Total:94      MisBP:0   MisRate:0.00%    MPKI:0.00
PC:16dc0     Total:195      MisBP:0   MisRate:0.00%    MPKI:0.00
PC:16a9c     Total:110      MisBP:0   MisRate:0.00%    MPKI:0.00
PC:16ada     Total:15      MisBP:0   MisRate:0.00%    MPKI:0.00
PC:16dc4     Total:200      MisBP:0   MisRate:0.00%    MPKI:0.00
PC:16ae2     Total:15      MisBP:0   MisRate:0.00%    MPKI:0.00
PC:18fb6     Total:94      MisBP:0   MisRate:0.00%    MPKI:0.00
PC:1460e     Total:39      MisBP:0   MisRate:0.00%    MPKI:0.00
PC:16ae8     Total:15      MisBP:0   MisRate:0.00%    MPKI:0.00
PC:14614     Total:39      MisBP:0   MisRate:0.00%    MPKI:0.00
PC:16aec     Total:15      MisBP:0   MisRate:0.00%    MPKI:0.00
PC:16dd6     Total:2021      MisBP:0   MisRate:0.00%    MPKI:0.00
PC:14618     Total:1      MisBP:0   MisRate:0.00%    MPKI:0.00
PC:185fc     Total:144923      MisBP:0   MisRate:0.00%    MPKI:0.00
PC:10ec2     Total:131      MisBP:0   MisRate:0.00%    MPKI:0.00
PC:13680     Total:56      MisBP:0   MisRate:0.00%    MPKI:0.00
PC:1856a     Total:15423      MisBP:0   MisRate:0.00%    MPKI:0.00
PC:18858     Total:3      MisBP:0   MisRate:0.00%    MPKI:0.00
PC:1886a     Total:5      MisBP:0   MisRate:0.00%    MPKI:0.00
PC:18874     Total:3      MisBP:0   MisRate:0.00%    MPKI:0.00
PC:1887c     Total:3      MisBP:0   MisRate:0.00%    MPKI:0.00
PC:16cd6     Total:225821      MisBP:0   MisRate:0.00%    MPKI:0.00
PC:3623a     Total:13      MisBP:0   MisRate:0.00%    MPKI:0.00
PC:135d6     Total:1102      MisBP:0   MisRate:0.00%    MPKI:0.00
PC:18552     Total:15576      MisBP:0   MisRate:0.00%    MPKI:0.00
PC:3623e     Total:11      MisBP:0   MisRate:0.00%    MPKI:0.00
PC:135da     Total:1102      MisBP:0   MisRate:0.00%    MPKI:0.00
PC:18556     Total:15575      MisBP:0   MisRate:0.00%    MPKI:0.00
PC:135e6     Total:1089      MisBP:0   MisRate:0.00%    MPKI:0.00
PC:18562     Total:15428      MisBP:0   MisRate:0.00%    MPKI:0.00
PC:36252     Total:3      MisBP:0   MisRate:0.00%    MPKI:0.00
PC:111ac     Total:1017      MisBP:0   MisRate:0.00%    MPKI:0.00
PC:13bc2     Total:3307443      MisBP:0   MisRate:0.00%    MPKI:0.00
PC:18572     Total:15419      MisBP:0   MisRate:0.00%    MPKI:0.00
PC:16a78     Total:114      MisBP:0   MisRate:0.00%    MPKI:0.00
PC:16a7c     Total:114      MisBP:0   MisRate:0.00%    MPKI:0.00
PC:16a80     Total:111      MisBP:0   MisRate:0.00%    MPKI:0.00
PC:16a82     Total:111      MisBP:0   MisRate:0.00%    MPKI:0.00
PC:16a86     Total:111      MisBP:0   MisRate:0.00%    MPKI:0.00
PC:16a8a     Total:111      MisBP:0   MisRate:0.00%    MPKI:0.00
PC:16a8c     Total:111      MisBP:0   MisRate:0.00%    MPKI:0.00
PC:16a90     Total:111      MisBP:0   MisRate:0.00%    MPKI:0.00
PC:16a94     Total:111      MisBP:0   MisRate:0.00%    MPKI:0.00
PC:16a96     Total:111      MisBP:0   MisRate:0.00%    MPKI:0.00
PC:16a9a     Total:110      MisBP:0   MisRate:0.00%    MPKI:0.00
PC:2947c     Total:375      MisBP:0   MisRate:0.00%    MPKI:0.00
PC:10ed8     Total:4      MisBP:0   MisRate:0.00%    MPKI:0.00
PC:18612     Total:340081      MisBP:0   MisRate:0.00%    MPKI:0.00
PC:13696     Total:45      MisBP:0   MisRate:0.00%    MPKI:0.00
PC:111c2     Total:941      MisBP:0   MisRate:0.00%    MPKI:0.00
PC:29474     Total:375      MisBP:0   MisRate:0.00%    MPKI:0.00
PC:13698     Total:45      MisBP:0   MisRate:0.00%    MPKI:0.00
PC:111c4     Total:941      MisBP:0   MisRate:0.00%    MPKI:0.00
PC:10ede     Total:119      MisBP:0   MisRate:0.00%    MPKI:0.00
PC:1369c     Total:45      MisBP:0   MisRate:0.00%    MPKI:0.00
PC:111c8     Total:961      MisBP:0   MisRate:0.00%    MPKI:0.00
PC:10ee0     Total:119      MisBP:0   MisRate:0.00%    MPKI:0.00
PC:1861a     Total:337867      MisBP:0   MisRate:0.00%    MPKI:0.00
PC:1369e     Total:45      MisBP:0   MisRate:0.00%    MPKI:0.00
PC:111ca     Total:947      MisBP:0   MisRate:0.00%    MPKI:0.00
PC:13694     Total:45      MisBP:0   MisRate:0.00%    MPKI:0.00
PC:10ee2     Total:119      MisBP:0   MisRate:0.00%    MPKI:0.00
PC:136a0     Total:45      MisBP:0   MisRate:0.00%    MPKI:0.00
PC:10ee4     Total:119      MisBP:0   MisRate:0.00%    MPKI:0.00
PC:1861e     Total:337489      MisBP:0   MisRate:0.00%    MPKI:0.00
PC:136a2     Total:45      MisBP:0   MisRate:0.00%    MPKI:0.00
PC:111ce     Total:727      MisBP:0   MisRate:0.00%    MPKI:0.00
PC:29480     Total:331      MisBP:0   MisRate:0.00%    MPKI:0.00
PC:10ee6     Total:119      MisBP:0   MisRate:0.00%    MPKI:0.00
PC:18620     Total:337696      MisBP:0   MisRate:0.00%    MPKI:0.00
PC:136a4     Total:40      MisBP:0   MisRate:0.00%    MPKI:0.00
PC:111d0     Total:727      MisBP:0   MisRate:0.00%    MPKI:0.00
PC:10ee8     Total:119      MisBP:0   MisRate:0.00%    MPKI:0.00
PC:136a6     Total:39      MisBP:0   MisRate:0.00%    MPKI:0.00
PC:18608     Total:138504      MisBP:0   MisRate:0.00%    MPKI:0.00
PC:18600     Total:138603      MisBP:0   MisRate:0.00%    MPKI:0.00
PC:10ec6     Total:131      MisBP:0   MisRate:0.00%    MPKI:0.00
PC:13684     Total:55      MisBP:0   MisRate:0.00%    MPKI:0.00
PC:111b0     Total:1016      MisBP:0   MisRate:0.00%    MPKI:0.00
PC:13686     Total:55      MisBP:0   MisRate:0.00%    MPKI:0.00
PC:29464     Total:977      MisBP:0   MisRate:0.00%    MPKI:0.00
PC:18604     Total:138600      MisBP:0   MisRate:0.00%    MPKI:0.00
PC:10eca     Total:131      MisBP:0   MisRate:0.00%    MPKI:0.00
PC:13688     Total:55      MisBP:0   MisRate:0.00%    MPKI:0.00
PC:111b4     Total:1013      MisBP:0   MisRate:0.00%    MPKI:0.00
PC:18606     Total:138557      MisBP:0   MisRate:0.00%    MPKI:0.00
PC:1368a     Total:55      MisBP:0   MisRate:0.00%    MPKI:0.00
PC:29468     Total:977      MisBP:0   MisRate:0.00%    MPKI:0.00
PC:13eac     Total:149600      MisBP:0   MisRate:0.00%    MPKI:0.00
PC:10ece     Total:95      MisBP:0   MisRate:0.00%    MPKI:0.00
PC:1368c     Total:55      MisBP:0   MisRate:0.00%    MPKI:0.00
PC:111b8     Total:1009      MisBP:0   MisRate:0.00%    MPKI:0.00
PC:1368e     Total:55      MisBP:0   MisRate:0.00%    MPKI:0.00
PC:2946c     Total:977      MisBP:0   MisRate:0.00%    MPKI:0.00
PC:1860c     Total:138238      MisBP:0   MisRate:0.00%    MPKI:0.00
PC:10ed2     Total:95      MisBP:0   MisRate:0.00%    MPKI:0.00
PC:111bc     Total:999      MisBP:0   MisRate:0.00%    MPKI:0.00
PC:1860e     Total:340405      MisBP:0   MisRate:0.00%    MPKI:0.00
PC:10ed4     Total:95      MisBP:0   MisRate:0.00%    MPKI:0.00
PC:13692     Total:45      MisBP:0   MisRate:0.00%    MPKI:0.00
PC:111be     Total:941      MisBP:0   MisRate:0.00%    MPKI:0.00
PC:18610     Total:340301      MisBP:0   MisRate:0.00%    MPKI:0.00
PC:145fe     Total:606      MisBP:0   MisRate:0.00%    MPKI:0.00
PC:1388c     Total:3      MisBP:0   MisRate:0.00%    MPKI:0.00
PC:18808     Total:9416      MisBP:0   MisRate:0.00%    MPKI:0.00
PC:10ebe     Total:131      MisBP:0   MisRate:0.00%    MPKI:0.00
PC:16ad0     Total:15      MisBP:0   MisRate:0.00%    MPKI:0.00
PC:18fa4     Total:94      MisBP:0   MisRate:0.00%    MPKI:0.00
PC:16dba     Total:195      MisBP:0   MisRate:0.00%    MPKI:0.00
PC:145fc     Total:609      MisBP:0   MisRate:0.00%    MPKI:0.00
PC:176b6     Total:5      MisBP:0   MisRate:0.00%    MPKI:0.00
PC:1367e     Total:80      MisBP:0   MisRate:0.00%    MPKI:0.00
PC:185fa     Total:146531      MisBP:0   MisRate:0.00%    MPKI:0.00
PC:10ec0     Total:131      MisBP:0   MisRate:0.00%    MPKI:0.00
PC:16ad2     Total:15      MisBP:0   MisRate:0.00%    MPKI:0.00
PC:18fa6     Total:94      MisBP:0   MisRate:0.00%    MPKI:0.00
PC:16dbc     Total:195      MisBP:0   MisRate:0.00%    MPKI:0.00
PC:176b4     Total:5      MisBP:0   MisRate:0.00%    MPKI:0.00
PC:176b8     Total:5      MisBP:0   MisRate:0.00%    MPKI:0.00
PC:16ad4     Total:15      MisBP:0   MisRate:0.00%    MPKI:0.00
PC:18fa8     Total:94      MisBP:0   MisRate:0.00%    MPKI:0.00
PC:176bc     Total:5      MisBP:0   MisRate:0.00%    MPKI:0.00
PC:16ad8     Total:15      MisBP:0   MisRate:0.00%    MPKI:0.00
PC:18fac     Total:94      MisBP:0   MisRate:0.00%    MPKI:0.00
PC:16adc     Total:15      MisBP:0   MisRate:0.00%    MPKI:0.00
PC:18fb0     Total:94      MisBP:0   MisRate:0.00%    MPKI:0.00
PC:14608     Total:39      MisBP:0   MisRate:0.00%    MPKI:0.00
PC:16ade     Total:15      MisBP:0   MisRate:0.00%    MPKI:0.00
PC:18fb2     Total:94      MisBP:0   MisRate:0.00%    MPKI:0.00
PC:16dc8     Total:2040      MisBP:0   MisRate:0.00%    MPKI:0.00
PC:1460a     Total:39      MisBP:0   MisRate:0.00%    MPKI:0.00
PC:13670     Total:881      MisBP:0   MisRate:0.00%    MPKI:0.00
PC:145e6     Total:610      MisBP:0   MisRate:0.00%    MPKI:0.00
PC:176a0     Total:1087046      MisBP:0   MisRate:0.00%    MPKI:0.00
PC:18ede     Total:60      MisBP:0   MisRate:0.00%    MPKI:0.00
PC:13f62     Total:5      MisBP:0   MisRate:0.00%    MPKI:0.00
PC:185e6     Total:125513      MisBP:0   MisRate:0.00%    MPKI:0.00
PC:10eac     Total:131      MisBP:0   MisRate:0.00%    MPKI:0.00
PC:16abe     Total:15      MisBP:0   MisRate:0.00%    MPKI:0.00
PC:18f92     Total:94      MisBP:0   MisRate:0.00%    MPKI:0.00
PC:16da8     Total:200      MisBP:0   MisRate:0.00%    MPKI:0.00
PC:145ea     Total:610      MisBP:0   MisRate:0.00%    MPKI:0.00
PC:176a4     Total:1086634      MisBP:0   MisRate:0.00%    MPKI:0.00
PC:13f66     Total:1      MisBP:0   MisRate:0.00%    MPKI:0.00
PC:176a8     Total:1085577      MisBP:0   MisRate:0.00%    MPKI:0.00
PC:13f6a     Total:1      MisBP:0   MisRate:0.00%    MPKI:0.00
PC:16ae0     Total:15      MisBP:0   MisRate:0.00%    MPKI:0.00
PC:10eb2     Total:131      MisBP:0   MisRate:0.00%    MPKI:0.00
PC:16ac4     Total:15      MisBP:0   MisRate:0.00%    MPKI:0.00
PC:185f0     Total:2225567      MisBP:0   MisRate:0.00%    MPKI:0.00
PC:10eb6     Total:131      MisBP:0   MisRate:0.00%    MPKI:0.00
PC:16ac8     Total:15      MisBP:0   MisRate:0.00%    MPKI:0.00
PC:18f9c     Total:94      MisBP:0   MisRate:0.00%    MPKI:0.00
PC:16db2     Total:199      MisBP:0   MisRate:0.00%    MPKI:0.00
PC:145f4     Total:609      MisBP:0   MisRate:0.00%    MPKI:0.00
PC:176ae     Total:1069181      MisBP:0   MisRate:0.00%    MPKI:0.00
PC:1367a     Total:80      MisBP:0   MisRate:0.00%    MPKI:0.00
PC:185f6     Total:146612      MisBP:0   MisRate:0.00%    MPKI:0.00
PC:10ebc     Total:131      MisBP:0   MisRate:0.00%    MPKI:0.00
PC:16ace     Total:15      MisBP:0   MisRate:0.00%    MPKI:0.00
PC:187d4     Total:9455      MisBP:0   MisRate:0.00%    MPKI:0.00
PC:1766e     Total:201490      MisBP:0   MisRate:0.00%    MPKI:0.00
PC:13f30     Total:51465      MisBP:0   MisRate:0.00%    MPKI:0.00
PC:17672     Total:201398      MisBP:0   MisRate:0.00%    MPKI:0.00
PC:17b32     Total:7784      MisBP:0   MisRate:0.00%    MPKI:0.00
PC:12bb6     Total:2      MisBP:0   MisRate:0.00%    MPKI:0.00
PC:17674     Total:200907      MisBP:0   MisRate:0.00%    MPKI:0.00
PC:18eb2     Total:320      MisBP:0   MisRate:0.00%    MPKI:0.00
PC:13f36     Total:1      MisBP:0   MisRate:0.00%    MPKI:0.00
PC:17678     Total:200671      MisBP:0   MisRate:0.00%    MPKI:0.00
PC:18eb6     Total:320      MisBP:0   MisRate:0.00%    MPKI:0.00
PC:13f3a     Total:1      MisBP:0   MisRate:0.00%    MPKI:0.00
PC:1767a     Total:198952      MisBP:0   MisRate:0.00%    MPKI:0.00
PC:1767c     Total:198904      MisBP:0   MisRate:0.00%    MPKI:0.00
PC:1767e     Total:198779      MisBP:0   MisRate:0.00%    MPKI:0.00
PC:13f2c     Total:51467      MisBP:0   MisRate:0.00%    MPKI:0.00
PC:1756a     Total:1498460      MisBP:0   MisRate:0.00%    MPKI:0.00
PC:17680     Total:194612      MisBP:0   MisRate:0.00%    MPKI:0.00
PC:16b06     Total:13      MisBP:0   MisRate:0.00%    MPKI:0.00
PC:18fdc     Total:93      MisBP:0   MisRate:0.00%    MPKI:0.00
PC:16b08     Total:13      MisBP:0   MisRate:0.00%    MPKI:0.00
PC:18842     Total:4      MisBP:0   MisRate:0.00%    MPKI:0.00
PC:13e9a     Total:149752      MisBP:0   MisRate:0.00%    MPKI:0.00
PC:18fde     Total:93      MisBP:0   MisRate:0.00%    MPKI:0.00
PC:16b0c     Total:13      MisBP:0   MisRate:0.00%    MPKI:0.00
PC:10efe     Total:1078      MisBP:0   MisRate:0.00%    MPKI:0.00
PC:18fe4     Total:93      MisBP:0   MisRate:0.00%    MPKI:0.00
PC:16b10     Total:13      MisBP:0   MisRate:0.00%    MPKI:0.00
PC:18854     Total:3      MisBP:0   MisRate:0.00%    MPKI:0.00
PC:18616     Total:676614      MisBP:0   MisRate:0.00%    MPKI:0.00
PC:16dca     Total:2040      MisBP:0   MisRate:0.00%    MPKI:0.00
PC:1460c     Total:39      MisBP:0   MisRate:0.00%    MPKI:0.00
PC:13178     Total:1      MisBP:0   MisRate:0.00%    MPKI:0.00
PC:138a0     Total:3      MisBP:0   MisRate:0.00%    MPKI:0.00
PC:1881c     Total:298566      MisBP:0   MisRate:0.00%    MPKI:0.00
PC:16ae4     Total:15      MisBP:0   MisRate:0.00%    MPKI:0.00
PC:16ae6     Total:15      MisBP:0   MisRate:0.00%    MPKI:0.00
PC:18fba     Total:94      MisBP:0   MisRate:0.00%    MPKI:0.00
PC:16dd0     Total:2021      MisBP:0   MisRate:0.00%    MPKI:0.00
PC:14612     Total:39      MisBP:0   MisRate:0.00%    MPKI:0.00
PC:1317c     Total:1      MisBP:0   MisRate:0.00%    MPKI:0.00
PC:138a6     Total:3      MisBP:0   MisRate:0.00%    MPKI:0.00
PC:18822     Total:298186      MisBP:0   MisRate:0.00%    MPKI:0.00
PC:17ace     Total:9      MisBP:0   MisRate:0.00%    MPKI:0.00
PC:10edc     Total:4      MisBP:0   MisRate:0.00%    MPKI:0.00
PC:16aee     Total:15      MisBP:0   MisRate:0.00%    MPKI:0.00
PC:18fc2     Total:93      MisBP:0   MisRate:0.00%    MPKI:0.00
PC:1461a     Total:1      MisBP:0   MisRate:0.00%    MPKI:0.00
PC:138b0     Total:2      MisBP:0   MisRate:0.00%    MPKI:0.00
PC:1882c     Total:2      MisBP:0   MisRate:0.00%    MPKI:0.00
PC:18fd2     Total:93      MisBP:0   MisRate:0.00%    MPKI:0.00
PC:1862a     Total:188328      MisBP:0   MisRate:0.00%    MPKI:0.00
PC:10ef0     Total:171      MisBP:0   MisRate:0.00%    MPKI:0.00
PC:16b02     Total:13      MisBP:0   MisRate:0.00%    MPKI:0.00
PC:17668     Total:201589      MisBP:0   MisRate:0.00%    MPKI:0.00
PC:1766a     Total:201509      MisBP:0   MisRate:0.00%    MPKI:0.00
PC:18ea8     Total:40      MisBP:0   MisRate:0.00%    MPKI:0.00
PC:17b34     Total:7787      MisBP:0   MisRate:0.00%    MPKI:0.00
PC:29384     Total:198      MisBP:0   MisRate:0.00%    MPKI:0.00
PC:16ce4     Total:225444      MisBP:0   MisRate:0.00%    MPKI:0.00
PC:1759a     Total:1411476      MisBP:0   MisRate:0.00%    MPKI:0.00
PC:2934c     Total:241      MisBP:0   MisRate:0.00%    MPKI:0.00
PC:16cac     Total:2953136      MisBP:0   MisRate:0.00%    MPKI:0.00
PC:10f7c     Total:1801      MisBP:0   MisRate:0.00%    MPKI:0.00
PC:186b6     Total:1556      MisBP:0   MisRate:0.00%    MPKI:0.00
PC:17562     Total:5283332      MisBP:0   MisRate:0.00%    MPKI:0.00
PC:1755c     Total:10614190      MisBP:0   MisRate:0.00%    MPKI:0.00
PC:12bb4     Total:2      MisBP:0   MisRate:0.00%    MPKI:0.00
PC:174f0     Total:1063399      MisBP:0   MisRate:0.00%    MPKI:0.00
PC:17ac4     Total:9      MisBP:0   MisRate:0.00%    MPKI:0.00
PC:12b48     Total:613      MisBP:0   MisRate:0.00%    MPKI:0.00
PC:17560     Total:5287643      MisBP:0   MisRate:0.00%    MPKI:0.00
PC:174fc     Total:1051443      MisBP:0   MisRate:0.00%    MPKI:0.00
PC:12bb8     Total:2      MisBP:0   MisRate:0.00%    MPKI:0.00
PC:16cb6     Total:259436      MisBP:0   MisRate:0.00%    MPKI:0.00
PC:1752e     Total:995397      MisBP:0   MisRate:0.00%    MPKI:0.00
PC:12b86     Total:3      MisBP:0   MisRate:0.00%    MPKI:0.00
PC:17b38     Total:7788      MisBP:0   MisRate:0.00%    MPKI:0.00
PC:12bbc     Total:2      MisBP:0   MisRate:0.00%    MPKI:0.00
PC:16cba     Total:259676      MisBP:0   MisRate:0.00%    MPKI:0.00
PC:17598     Total:1411981      MisBP:0   MisRate:0.00%    MPKI:0.00
PC:13886     Total:3      MisBP:0   MisRate:0.00%    MPKI:0.00
PC:18802     Total:9416      MisBP:0   MisRate:0.00%    MPKI:0.00
PC:1751e     Total:1006559      MisBP:0   MisRate:0.00%    MPKI:0.00
PC:17af2     Total:13      MisBP:0   MisRate:0.00%    MPKI:0.00
PC:12b76     Total:625      MisBP:0   MisRate:0.00%    MPKI:0.00
PC:18810     Total:9413      MisBP:0   MisRate:0.00%    MPKI:0.00
PC:17ada     Total:9      MisBP:0   MisRate:0.00%    MPKI:0.00
PC:12b5e     Total:1277      MisBP:0   MisRate:0.00%    MPKI:0.00
PC:1762c     Total:803108      MisBP:0   MisRate:0.00%    MPKI:0.00
PC:13eee     Total:56507      MisBP:0   MisRate:0.00%    MPKI:0.00
PC:185ea     Total:4478645      MisBP:0   MisRate:0.00%    MPKI:0.00
PC:17502     Total:446945      MisBP:0   MisRate:0.00%    MPKI:0.00
PC:17ad6     Total:9      MisBP:0   MisRate:0.00%    MPKI:0.00
PC:12b5a     Total:1292      MisBP:0   MisRate:0.00%    MPKI:0.00
PC:17ad4     Total:9      MisBP:0   MisRate:0.00%    MPKI:0.00
PC:12b58     Total:1292      MisBP:0   MisRate:0.00%    MPKI:0.00
PC:29390     Total:186      MisBP:0   MisRate:0.00%    MPKI:0.00
PC:16cf0     Total:3020039      MisBP:0   MisRate:0.00%    MPKI:0.00
PC:175a6     Total:1363380      MisBP:0   MisRate:0.00%    MPKI:0.00
PC:13894     Total:3      MisBP:0   MisRate:0.00%    MPKI:0.00
PC:17522     Total:1002842      MisBP:0   MisRate:0.00%    MPKI:0.00
PC:17082     Total:185280      MisBP:0   MisRate:0.00%    MPKI:0.00
PC:16ca8     Total:3050220      MisBP:0   MisRate:0.00%    MPKI:0.00
PC:361ce     Total:174      MisBP:0   MisRate:0.00%    MPKI:0.00
PC:1356a     Total:755      MisBP:0   MisRate:0.00%    MPKI:0.00
PC:16cb4     Total:2946553      MisBP:0   MisRate:0.00%    MPKI:0.00
PC:18726     Total:41209      MisBP:0   MisRate:0.00%    MPKI:0.00
PC:174b4     Total:1250497      MisBP:0   MisRate:0.00%    MPKI:0.00
PC:16ca0     Total:3774347      MisBP:0   MisRate:0.00%    MPKI:0.00
PC:29340     Total:900      MisBP:0   MisRate:0.00%    MPKI:0.00
PC:29368     Total:238      MisBP:0   MisRate:0.00%    MPKI:0.00
PC:1757e     Total:1588167      MisBP:0   MisRate:0.00%    MPKI:0.00
PC:17bfe     Total:17918      MisBP:0   MisRate:0.00%    MPKI:0.00
PC:184a8     Total:504365      MisBP:0   MisRate:0.00%    MPKI:0.00
PC:17556     Total:1151333      MisBP:0   MisRate:0.00%    MPKI:0.00
PC:16cae     Total:2950082      MisBP:0   MisRate:0.00%    MPKI:0.00
PC:17558     Total:1149752      MisBP:0   MisRate:0.00%    MPKI:0.00
PC:187c2     Total:9463      MisBP:0   MisRate:0.00%    MPKI:0.00
PC:29378     Total:232      MisBP:0   MisRate:0.00%    MPKI:0.00
PC:1758e     Total:24277      MisBP:0   MisRate:0.00%    MPKI:0.00
PC:187f8     Total:9442      MisBP:0   MisRate:0.00%    MPKI:0.00
PC:2937c     Total:226      MisBP:0   MisRate:0.00%    MPKI:0.00
PC:16cdc     Total:225657      MisBP:0   MisRate:0.00%    MPKI:0.00
PC:17592     Total:1412781      MisBP:0   MisRate:0.00%    MPKI:0.00
PC:13880     Total:3      MisBP:0   MisRate:0.00%    MPKI:0.00
PC:187fc     Total:9442      MisBP:0   MisRate:0.00%    MPKI:0.00
PC:1761a     Total:504720      MisBP:0   MisRate:0.00%    MPKI:0.00
PC:18884     Total:2      MisBP:0   MisRate:0.00%    MPKI:0.00
PC:13edc     Total:627      MisBP:0   MisRate:0.00%    MPKI:0.00
PC:13ede     Total:627      MisBP:0   MisRate:0.00%    MPKI:0.00
PC:17b2a     Total:7785      MisBP:0   MisRate:0.00%    MPKI:0.00
PC:12bae     Total:4      MisBP:0   MisRate:0.00%    MPKI:0.00
PC:16caa     Total:2954460      MisBP:0   MisRate:0.00%    MPKI:0.00
PC:17554     Total:1151627      MisBP:0   MisRate:0.00%    MPKI:0.00
PC:17b28     Total:7785      MisBP:0   MisRate:0.00%    MPKI:0.00
PC:12bac     Total:2      MisBP:0   MisRate:0.00%    MPKI:0.00
PC:29374     Total:235      MisBP:0   MisRate:0.00%    MPKI:0.00
PC:16ce2     Total:225471      MisBP:0   MisRate:0.00%    MPKI:0.00
PC:135a4     Total:180257      MisBP:0   MisRate:0.00%    MPKI:0.00
PC:1758c     Total:24278      MisBP:0   MisRate:0.00%    MPKI:0.00
PC:17520     Total:1003552      MisBP:0   MisRate:0.00%    MPKI:0.00
PC:17512     Total:1020444      MisBP:0   MisRate:0.00%    MPKI:0.00
PC:17ae6     Total:19      MisBP:0   MisRate:0.00%    MPKI:0.00
PC:1761e     Total:1011233      MisBP:0   MisRate:0.00%    MPKI:0.00
PC:17af6     Total:13      MisBP:0   MisRate:0.00%    MPKI:0.00
PC:12b7a     Total:4      MisBP:0   MisRate:0.00%    MPKI:0.00
PC:17620     Total:1011093      MisBP:0   MisRate:0.00%    MPKI:0.00
PC:1888a     Total:2      MisBP:0   MisRate:0.00%    MPKI:0.00
PC:13ee2     Total:627      MisBP:0   MisRate:0.00%    MPKI:0.00
PC:29380     Total:198      MisBP:0   MisRate:0.00%    MPKI:0.00
PC:16ce0     Total:225614      MisBP:0   MisRate:0.00%    MPKI:0.00
PC:16cec     Total:3025538      MisBP:0   MisRate:0.00%    MPKI:0.00
PC:2938c     Total:194      MisBP:0   MisRate:0.00%    MPKI:0.00
PC:17596     Total:1411855      MisBP:0   MisRate:0.00%    MPKI:0.00
PC:174b0     Total:1250348      MisBP:0   MisRate:0.00%    MPKI:0.00
PC:1871a     Total:41209      MisBP:0   MisRate:0.00%    MPKI:0.00
PC:293c8     Total:714      MisBP:0   MisRate:0.00%    MPKI:0.00
PC:17506     Total:1031016      MisBP:0   MisRate:0.00%    MPKI:0.00
PC:16ce6     Total:225436      MisBP:0   MisRate:0.00%    MPKI:0.00
PC:17594     Total:1412564      MisBP:0   MisRate:0.00%    MPKI:0.00
PC:13882     Total:3      MisBP:0   MisRate:0.00%    MPKI:0.00
PC:187fe     Total:9418      MisBP:0   MisRate:0.00%    MPKI:0.00
PC:13676     Total:80      MisBP:0   MisRate:0.00%    MPKI:0.00
PC:10eb8     Total:131      MisBP:0   MisRate:0.00%    MPKI:0.00
PC:16aca     Total:15      MisBP:0   MisRate:0.00%    MPKI:0.00
PC:18f9e     Total:94      MisBP:0   MisRate:0.00%    MPKI:0.00
PC:16db4     Total:197      MisBP:0   MisRate:0.00%    MPKI:0.00
PC:145f6     Total:609      MisBP:0   MisRate:0.00%    MPKI:0.00
PC:176b0     Total:1      MisBP:0   MisRate:0.00%    MPKI:0.00
PC:1761c     Total:504449      MisBP:0   MisRate:0.00%    MPKI:0.00
PC:18886     Total:2      MisBP:0   MisRate:0.00%    MPKI:0.00
PC:14642     Total:9      MisBP:0   MisRate:0.00%    MPKI:0.00
PC:18e90     Total:360      MisBP:0   MisRate:0.00%    MPKI:0.00
PC:13f14     Total:51649      MisBP:0   MisRate:0.00%    MPKI:0.00
PC:1764e     Total:202724      MisBP:0   MisRate:0.00%    MPKI:0.00
PC:188b8     Total:1      MisBP:0   MisRate:0.00%    MPKI:0.00
PC:13f10     Total:2      MisBP:0   MisRate:0.00%    MPKI:0.00
PC:1764c     Total:1034266      MisBP:0   MisRate:0.00%    MPKI:0.00
PC:188b6     Total:1      MisBP:0   MisRate:0.00%    MPKI:0.00
PC:17648     Total:1034791      MisBP:0   MisRate:0.00%    MPKI:0.00
PC:188b2     Total:1      MisBP:0   MisRate:0.00%    MPKI:0.00
PC:17646     Total:1035605      MisBP:0   MisRate:0.00%    MPKI:0.00
PC:188b0     Total:1      MisBP:0   MisRate:0.00%    MPKI:0.00
PC:13f08     Total:33      MisBP:0   MisRate:0.00%    MPKI:0.00
PC:17644     Total:1036620      MisBP:0   MisRate:0.00%    MPKI:0.00
PC:13f06     Total:33      MisBP:0   MisRate:0.00%    MPKI:0.00
PC:17652     Total:202864      MisBP:0   MisRate:0.00%    MPKI:0.00
PC:188ac     Total:1      MisBP:0   MisRate:0.00%    MPKI:0.00
PC:13f04     Total:33      MisBP:0   MisRate:0.00%    MPKI:0.00
PC:17640     Total:1038599      MisBP:0   MisRate:0.00%    MPKI:0.00
PC:13f02     Total:8717      MisBP:0   MisRate:0.00%    MPKI:0.00
PC:18728     Total:41209      MisBP:0   MisRate:0.00%    MPKI:0.00
PC:1763e     Total:1078653      MisBP:0   MisRate:0.00%    MPKI:0.00
PC:188a8     Total:1      MisBP:0   MisRate:0.00%    MPKI:0.00
PC:13f00     Total:8718      MisBP:0   MisRate:0.00%    MPKI:0.00
PC:1763c     Total:1078088      MisBP:0   MisRate:0.00%    MPKI:0.00
PC:1763a     Total:1079522      MisBP:0   MisRate:0.00%    MPKI:0.00
PC:188a4     Total:1      MisBP:0   MisRate:0.00%    MPKI:0.00
PC:13efc     Total:56485      MisBP:0   MisRate:0.00%    MPKI:0.00
PC:1889c     Total:1      MisBP:0   MisRate:0.00%    MPKI:0.00
PC:17058     Total:2931295      MisBP:0   MisRate:0.00%    MPKI:0.00
PC:1351a     Total:849      MisBP:0   MisRate:0.00%    MPKI:0.00
PC:18496     Total:952852      MisBP:0   MisRate:0.00%    MPKI:0.00
PC:17be8     Total:18785      MisBP:0   MisRate:0.00%    MPKI:0.00
PC:18492     Total:953237      MisBP:0   MisRate:0.00%    MPKI:0.00
PC:1707e     Total:205257      MisBP:0   MisRate:0.00%    MPKI:0.00
PC:1705e     Total:2928374      MisBP:0   MisRate:0.00%    MPKI:0.00
PC:17664     Total:201591      MisBP:0   MisRate:0.00%    MPKI:0.00
PC:18ea2     Total:40      MisBP:0   MisRate:0.00%    MPKI:0.00
PC:13f26     Total:51507      MisBP:0   MisRate:0.00%    MPKI:0.00
PC:1705c     Total:2929415      MisBP:0   MisRate:0.00%    MPKI:0.00
PC:1791a     Total:14      MisBP:0   MisRate:0.00%    MPKI:0.00
PC:101e0     Total:63      MisBP:0   MisRate:0.00%    MPKI:0.00
PC:296fc     Total:628      MisBP:0   MisRate:0.00%    MPKI:0.00
PC:17662     Total:203071      MisBP:0   MisRate:0.00%    MPKI:0.00
PC:1871c     Total:41209      MisBP:0   MisRate:0.00%    MPKI:0.00
PC:17916     Total:14      MisBP:0   MisRate:0.00%    MPKI:0.00
PC:101dc     Total:63      MisBP:0   MisRate:0.00%    MPKI:0.00
PC:296f8     Total:628      MisBP:0   MisRate:0.00%    MPKI:0.00
PC:1765e     Total:203108      MisBP:0   MisRate:0.00%    MPKI:0.00
PC:18e9c     Total:40      MisBP:0   MisRate:0.00%    MPKI:0.00
PC:13f20     Total:51525      MisBP:0   MisRate:0.00%    MPKI:0.00
PC:17056     Total:2932742      MisBP:0   MisRate:0.00%    MPKI:0.00
PC:1765c     Total:202727      MisBP:0   MisRate:0.00%    MPKI:0.00
PC:17656     Total:202660      MisBP:0   MisRate:0.00%    MPKI:0.00
PC:18e94     Total:40      MisBP:0   MisRate:0.00%    MPKI:0.00
PC:13f18     Total:51643      MisBP:0   MisRate:0.00%    MPKI:0.00
PC:17654     Total:202702      MisBP:0   MisRate:0.00%    MPKI:0.00
PC:188be     Total:1      MisBP:0   MisRate:0.00%    MPKI:0.00
PC:29734     Total:624      MisBP:0   MisRate:0.00%    MPKI:0.00
PC:170a4     Total:172053      MisBP:0   MisRate:0.00%    MPKI:0.00
PC:29744     Total:610      MisBP:0   MisRate:0.00%    MPKI:0.00
PC:170a0     Total:172081      MisBP:0   MisRate:0.00%    MPKI:0.00
PC:10224     Total:9      MisBP:0   MisRate:0.00%    MPKI:0.00
PC:29740     Total:610      MisBP:0   MisRate:0.00%    MPKI:0.00
PC:185c2     Total:126800      MisBP:0   MisRate:0.00%    MPKI:0.00
PC:174d8     Total:1159280      MisBP:0   MisRate:0.00%    MPKI:0.00
PC:1709e     Total:172385      MisBP:0   MisRate:0.00%    MPKI:0.00
PC:185bc     Total:128912      MisBP:0   MisRate:0.00%    MPKI:0.00
PC:1709a     Total:172414      MisBP:0   MisRate:0.00%    MPKI:0.00
PC:174d2     Total:1565249      MisBP:0   MisRate:0.00%    MPKI:0.00
PC:17094     Total:172512      MisBP:0   MisRate:0.00%    MPKI:0.00
PC:17952     Total:7      MisBP:0   MisRate:0.00%    MPKI:0.00
PC:10218     Total:78      MisBP:0   MisRate:0.00%    MPKI:0.00
PC:174de     Total:1154192      MisBP:0   MisRate:0.00%    MPKI:0.00
PC:185b4     Total:1485891      MisBP:0   MisRate:0.00%    MPKI:0.00
PC:17092     Total:178109      MisBP:0   MisRate:0.00%    MPKI:0.00
PC:17090     Total:177920      MisBP:0   MisRate:0.00%    MPKI:0.00
PC:1794e     Total:7      MisBP:0   MisRate:0.00%    MPKI:0.00
PC:10214     Total:58      MisBP:0   MisRate:0.00%    MPKI:0.00
PC:29730     Total:624      MisBP:0   MisRate:0.00%    MPKI:0.00
PC:174c8     Total:1568931      MisBP:0   MisRate:0.00%    MPKI:0.00
PC:18732     Total:44      MisBP:0   MisRate:0.00%    MPKI:0.00
PC:1708e     Total:177941      MisBP:0   MisRate:0.00%    MPKI:0.00
PC:174c0     Total:1200324      MisBP:0   MisRate:0.00%    MPKI:0.00
PC:18690     Total:497      MisBP:0   MisRate:0.00%    MPKI:0.00
PC:16c92     Total:3836299      MisBP:0   MisRate:0.00%    MPKI:0.00
PC:185ee     Total:2227092      MisBP:0   MisRate:0.00%    MPKI:0.00
PC:10eaa     Total:131      MisBP:0   MisRate:0.00%    MPKI:0.00
PC:1750a     Total:1030041      MisBP:0   MisRate:0.00%    MPKI:0.00
PC:12b62     Total:1274      MisBP:0   MisRate:0.00%    MPKI:0.00
PC:293ac     Total:172      MisBP:0   MisRate:0.00%    MPKI:0.00
PC:18716     Total:519902      MisBP:0   MisRate:0.00%    MPKI:0.00
PC:174ac     Total:1251094      MisBP:0   MisRate:0.00%    MPKI:0.00
PC:1762e     Total:1090756      MisBP:0   MisRate:0.00%    MPKI:0.00
PC:18898     Total:1      MisBP:0   MisRate:0.00%    MPKI:0.00
PC:13ef0     Total:56500      MisBP:0   MisRate:0.00%    MPKI:0.00
PC:17504     Total:446701      MisBP:0   MisRate:0.00%    MPKI:0.00
PC:17ad8     Total:9      MisBP:0   MisRate:0.00%    MPKI:0.00
PC:12b5c     Total:1288      MisBP:0   MisRate:0.00%    MPKI:0.00
PC:17626     Total:811502      MisBP:0   MisRate:0.00%    MPKI:0.00
PC:18890     Total:2      MisBP:0   MisRate:0.00%    MPKI:0.00
PC:12b6a     Total:1262      MisBP:0   MisRate:0.00%    MPKI:0.00
PC:185e4     Total:125522      MisBP:0   MisRate:0.00%    MPKI:0.00
PC:170b6     Total:2293016      MisBP:0   MisRate:0.00%    MPKI:0.00
PC:174ec     Total:1064523      MisBP:0   MisRate:0.00%    MPKI:0.00
PC:17ac0     Total:9      MisBP:0   MisRate:0.00%    MPKI:0.00
PC:12b44     Total:619      MisBP:0   MisRate:0.00%    MPKI:0.00
PC:170ac     Total:166594      MisBP:0   MisRate:0.00%    MPKI:0.00
PC:2974c     Total:609      MisBP:0   MisRate:0.00%    MPKI:0.00
PC:10e94     Total:132      MisBP:0   MisRate:0.00%    MPKI:0.00
PC:185ce     Total:126792      MisBP:0   MisRate:0.00%    MPKI:0.00
PC:174e4     Total:1153721      MisBP:0   MisRate:0.00%    MPKI:0.00
PC:170aa     Total:166622      MisBP:0   MisRate:0.00%    MPKI:0.00
PC:170a8     Total:172013      MisBP:0   MisRate:0.00%    MPKI:0.00
PC:29748     Total:609      MisBP:0   MisRate:0.00%    MPKI:0.00
PC:18862     Total:3      MisBP:0   MisRate:0.00%    MPKI:0.00
PC:13eae     Total:149571      MisBP:0   MisRate:0.00%    MPKI:0.00
PC:175f0     Total:1694405      MisBP:0   MisRate:0.00%    MPKI:0.00
PC:13eb2     Total:180834      MisBP:0   MisRate:0.00%    MPKI:0.00
PC:293dc     Total:130      MisBP:0   MisRate:0.00%    MPKI:0.00
PC:1857a     Total:15312      MisBP:0   MisRate:0.00%    MPKI:0.00
PC:135fe     Total:1085      MisBP:0   MisRate:0.00%    MPKI:0.00
PC:175f2     Total:1694042      MisBP:0   MisRate:0.00%    MPKI:0.00
PC:1885c     Total:3      MisBP:0   MisRate:0.00%    MPKI:0.00
PC:13eb4     Total:180809      MisBP:0   MisRate:0.00%    MPKI:0.00
PC:293e0     Total:130      MisBP:0   MisRate:0.00%    MPKI:0.00
PC:1857e     Total:15110      MisBP:0   MisRate:0.00%    MPKI:0.00
PC:13602     Total:1014      MisBP:0   MisRate:0.00%    MPKI:0.00
PC:175f6     Total:1693289      MisBP:0   MisRate:0.00%    MPKI:0.00
PC:18860     Total:3      MisBP:0   MisRate:0.00%    MPKI:0.00
PC:175ec     Total:1694096      MisBP:0   MisRate:0.00%    MPKI:0.00
PC:13eba     Total:985      MisBP:0   MisRate:0.00%    MPKI:0.00
PC:293e4     Total:65      MisBP:0   MisRate:0.00%    MPKI:0.00
PC:18582     Total:15109      MisBP:0   MisRate:0.00%    MPKI:0.00
PC:13606     Total:1014      MisBP:0   MisRate:0.00%    MPKI:0.00
PC:175fa     Total:1463847      MisBP:0   MisRate:0.00%    MPKI:0.00
PC:18864     Total:3      MisBP:0   MisRate:0.00%    MPKI:0.00
PC:13ebc     Total:985      MisBP:0   MisRate:0.00%    MPKI:0.00
PC:175fc     Total:1462906      MisBP:0   MisRate:0.00%    MPKI:0.00
PC:18866     Total:3      MisBP:0   MisRate:0.00%    MPKI:0.00
PC:13ebe     Total:2      MisBP:0   MisRate:0.00%    MPKI:0.00
PC:175a2     Total:1408850      MisBP:0   MisRate:0.00%    MPKI:0.00
PC:13890     Total:3      MisBP:0   MisRate:0.00%    MPKI:0.00
PC:1880c     Total:9414      MisBP:0   MisRate:0.00%    MPKI:0.00
PC:1881e     Total:298554      MisBP:0   MisRate:0.00%    MPKI:0.00
PC:17566     Total:1409788      MisBP:0   MisRate:0.00%    MPKI:0.00
PC:187d0     Total:9458      MisBP:0   MisRate:0.00%    MPKI:0.00
PC:17b3a     Total:7776      MisBP:0   MisRate:0.00%    MPKI:0.00
PC:12bbe     Total:2      MisBP:0   MisRate:0.00%    MPKI:0.00
PC:174c6     Total:1198808      MisBP:0   MisRate:0.00%    MPKI:0.00
PC:29398     Total:354      MisBP:0   MisRate:0.00%    MPKI:0.00
PC:16cf8     Total:2961782      MisBP:0   MisRate:0.00%    MPKI:0.00
PC:175ae     Total:1377606      MisBP:0   MisRate:0.00%    MPKI:0.00
PC:1389c     Total:3      MisBP:0   MisRate:0.00%    MPKI:0.00
PC:18818     Total:298656      MisBP:0   MisRate:0.00%    MPKI:0.00
PC:175b0     Total:1377090      MisBP:0   MisRate:0.00%    MPKI:0.00
PC:1389e     Total:3      MisBP:0   MisRate:0.00%    MPKI:0.00
PC:1881a     Total:298621      MisBP:0   MisRate:0.00%    MPKI:0.00
PC:175b4     Total:1376796      MisBP:0   MisRate:0.00%    MPKI:0.00
PC:16cfa     Total:51      MisBP:0   MisRate:0.00%    MPKI:0.00
PC:293a4     Total:176      MisBP:0   MisRate:0.00%    MPKI:0.00
PC:3622a     Total:11      MisBP:0   MisRate:0.00%    MPKI:0.00
PC:1870e     Total:520195      MisBP:0   MisRate:0.00%    MPKI:0.00
PC:175ba     Total:443336      MisBP:0   MisRate:0.00%    MPKI:0.00
PC:18710     Total:520064      MisBP:0   MisRate:0.00%    MPKI:0.00
PC:175bc     Total:443201      MisBP:0   MisRate:0.00%    MPKI:0.00
PC:138aa     Total:3      MisBP:0   MisRate:0.00%    MPKI:0.00
PC:18826     Total:2      MisBP:0   MisRate:0.00%    MPKI:0.00
PC:293a8     Total:344      MisBP:0   MisRate:0.00%    MPKI:0.00
PC:3622e     Total:13      MisBP:0   MisRate:0.00%    MPKI:0.00
PC:135ca     Total:1102      MisBP:0   MisRate:0.00%    MPKI:0.00
PC:175be     Total:443079      MisBP:0   MisRate:0.00%    MPKI:0.00
PC:18828     Total:2      MisBP:0   MisRate:0.00%    MPKI:0.00
PC:176ac     Total:1083099      MisBP:0   MisRate:0.00%    MPKI:0.00
PC:36226     Total:11      MisBP:0   MisRate:0.00%    MPKI:0.00
PC:135c2     Total:802773      MisBP:0   MisRate:0.00%    MPKI:0.00
PC:175b6     Total:443293      MisBP:0   MisRate:0.00%    MPKI:0.00
PC:138a4     Total:3      MisBP:0   MisRate:0.00%    MPKI:0.00
PC:18820     Total:298530      MisBP:0   MisRate:0.00%    MPKI:0.00
PC:1870a     Total:520445      MisBP:0   MisRate:0.00%    MPKI:0.00
PC:1762a     Total:811381      MisBP:0   MisRate:0.00%    MPKI:0.00
PC:18894     Total:1      MisBP:0   MisRate:0.00%    MPKI:0.00
PC:17636     Total:1080914      MisBP:0   MisRate:0.00%    MPKI:0.00
PC:188a0     Total:1      MisBP:0   MisRate:0.00%    MPKI:0.00
PC:13ef8     Total:56492      MisBP:0   MisRate:0.00%    MPKI:0.00
PC:17c00     Total:16160      MisBP:0   MisRate:0.00%    MPKI:0.00
PC:1352e     Total:847      MisBP:0   MisRate:0.00%    MPKI:0.00
PC:184aa     Total:504057      MisBP:0   MisRate:0.00%    MPKI:0.00
PC:293a0     Total:354      MisBP:0   MisRate:0.00%    MPKI:0.00
PC:29344     Total:900      MisBP:0   MisRate:0.00%    MPKI:0.00
PC:1755a     Total:1148845      MisBP:0   MisRate:0.00%    MPKI:0.00
PC:12bb2     Total:2      MisBP:0   MisRate:0.00%    MPKI:0.00
PC:174b8     Total:1249624      MisBP:0   MisRate:0.00%    MPKI:0.00
PC:174f4     Total:1053768      MisBP:0   MisRate:0.00%    MPKI:0.00
PC:12b4c     Total:1301      MisBP:0   MisRate:0.00%    MPKI:0.00
PC:1752a     Total:994938      MisBP:0   MisRate:0.00%    MPKI:0.00
PC:17afe     Total:13      MisBP:0   MisRate:0.00%    MPKI:0.00
PC:12b82     Total:3      MisBP:0   MisRate:0.00%    MPKI:0.00
PC:174f8     Total:1052860      MisBP:0   MisRate:0.00%    MPKI:0.00
PC:12b50     Total:1294      MisBP:0   MisRate:0.00%    MPKI:0.00
PC:1870c     Total:520357      MisBP:0   MisRate:0.00%    MPKI:0.00
PC:174fa     Total:1051573      MisBP:0   MisRate:0.00%    MPKI:0.00
PC:18586     Total:15108      MisBP:0   MisRate:0.00%    MPKI:0.00
PC:175a4     Total:1363708      MisBP:0   MisRate:0.00%    MPKI:0.00
PC:1880e     Total:9414      MisBP:0   MisRate:0.00%    MPKI:0.00
PC:16cfe     Total:51      MisBP:0   MisRate:0.00%    MPKI:0.00
PC:135c0     Total:802845      MisBP:0   MisRate:0.00%    MPKI:0.00
PC:175a8     Total:1378866      MisBP:0   MisRate:0.00%    MPKI:0.00
PC:13896     Total:3      MisBP:0   MisRate:0.00%    MPKI:0.00
PC:18812     Total:9405      MisBP:0   MisRate:0.00%    MPKI:0.00
PC:185b8     Total:1485292      MisBP:0   MisRate:0.00%    MPKI:0.00
PC:17096     Total:172429      MisBP:0   MisRate:0.00%    MPKI:0.00
PC:175ac     Total:1377492      MisBP:0   MisRate:0.00%    MPKI:0.00
PC:1389a     Total:3      MisBP:0   MisRate:0.00%    MPKI:0.00
PC:18816     Total:298676      MisBP:0   MisRate:0.00%    MPKI:0.00
PC:293e8     Total:130      MisBP:0   MisRate:0.00%    MPKI:0.00
PC:16cb0     Total:2949538      MisBP:0   MisRate:0.00%    MPKI:0.00
PC:1360a     Total:1012      MisBP:0   MisRate:0.00%    MPKI:0.00
PC:175fe     Total:1368828      MisBP:0   MisRate:0.00%    MPKI:0.00
PC:293ec     Total:130      MisBP:0   MisRate:0.00%    MPKI:0.00
PC:17602     Total:1368313      MisBP:0   MisRate:0.00%    MPKI:0.00
PC:17604     Total:1367517      MisBP:0   MisRate:0.00%    MPKI:0.00
PC:1886e     Total:5      MisBP:0   MisRate:0.00%    MPKI:0.00
PC:293f0     Total:130      MisBP:0   MisRate:0.00%    MPKI:0.00
PC:13612     Total:84      MisBP:0   MisRate:0.00%    MPKI:0.00
PC:17606     Total:1367297      MisBP:0   MisRate:0.00%    MPKI:0.00
PC:17608     Total:1365798      MisBP:0   MisRate:0.00%    MPKI:0.00
PC:17616     Total:1321330      MisBP:0   MisRate:0.00%    MPKI:0.00
PC:1888c     Total:2      MisBP:0   MisRate:0.00%    MPKI:0.00
PC:13ee4     Total:56515      MisBP:0   MisRate:0.00%    MPKI:0.00
PC:12b7e     Total:4      MisBP:0   MisRate:0.00%    MPKI:0.00
PC:18878     Total:6      MisBP:0   MisRate:0.00%    MPKI:0.00
PC:17638     Total:1079796      MisBP:0   MisRate:0.00%    MPKI:0.00
PC:1760c     Total:1363348      MisBP:0   MisRate:0.00%    MPKI:0.00
PC:18876     Total:3      MisBP:0   MisRate:0.00%    MPKI:0.00
PC:16c9e     Total:3775353      MisBP:0   MisRate:0.00%    MPKI:0.00
PC:17548     Total:500029      MisBP:0   MisRate:0.00%    MPKI:0.00
PC:17b1c     Total:10      MisBP:0   MisRate:0.00%    MPKI:0.00
PC:12ba0     Total:3      MisBP:0   MisRate:0.00%    MPKI:0.00
PC:174dc     Total:1154724      MisBP:0   MisRate:0.00%    MPKI:0.00
PC:16cf2     Total:3017333      MisBP:0   MisRate:0.00%    MPKI:0.00
PC:18806     Total:9416      MisBP:0   MisRate:0.00%    MPKI:0.00
PC:174b6     Total:1249944      MisBP:0   MisRate:0.00%    MPKI:0.00
PC:18720     Total:82418      MisBP:0   MisRate:0.00%    MPKI:0.00
PC:17526     Total:1002579      MisBP:0   MisRate:0.00%    MPKI:0.00
PC:1760e     Total:1363210      MisBP:0   MisRate:0.00%    MPKI:0.00
PC:2936c     Total:236      MisBP:0   MisRate:0.00%    MPKI:0.00
PC:16ccc     Total:233012      MisBP:0   MisRate:0.00%    MPKI:0.00
PC:17582     Total:1587944      MisBP:0   MisRate:0.00%    MPKI:0.00
PC:17516     Total:1040498      MisBP:0   MisRate:0.00%    MPKI:0.00
PC:12b6e     Total:1262      MisBP:0   MisRate:0.00%    MPKI:0.00
PC:1866a     Total:41931      MisBP:0   MisRate:0.00%    MPKI:0.00
PC:13530     Total:846      MisBP:0   MisRate:0.00%    MPKI:0.00
PC:184ac     Total:503976      MisBP:0   MisRate:0.00%    MPKI:0.00
PC:1750c     Total:1028815      MisBP:0   MisRate:0.00%    MPKI:0.00
PC:13678     Total:80      MisBP:0   MisRate:0.00%    MPKI:0.00
PC:185f4     Total:135424      MisBP:0   MisRate:0.00%    MPKI:0.00
PC:17546     Total:500136      MisBP:0   MisRate:0.00%    MPKI:0.00
PC:12b9e     Total:3      MisBP:0   MisRate:0.00%    MPKI:0.00
PC:1754c     Total:499982      MisBP:0   MisRate:0.00%    MPKI:0.00
PC:17614     Total:1325161      MisBP:0   MisRate:0.00%    MPKI:0.00
PC:1887e     Total:4      MisBP:0   MisRate:0.00%    MPKI:0.00
PC:16ca6     Total:3051066      MisBP:0   MisRate:0.00%    MPKI:0.00
PC:17550     Total:1157539      MisBP:0   MisRate:0.00%    MPKI:0.00
PC:17b24     Total:7783      MisBP:0   MisRate:0.00%    MPKI:0.00
PC:12ba8     Total:4      MisBP:0   MisRate:0.00%    MPKI:0.00
PC:29370     Total:236      MisBP:0   MisRate:0.00%    MPKI:0.00
PC:16cd0     Total:233193      MisBP:0   MisRate:0.00%    MPKI:0.00
PC:17588     Total:24266      MisBP:0   MisRate:0.00%    MPKI:0.00
PC:1751c     Total:1007402      MisBP:0   MisRate:0.00%    MPKI:0.00
PC:17af0     Total:13      MisBP:0   MisRate:0.00%    MPKI:0.00
PC:12b74     Total:618      MisBP:0   MisRate:0.00%    MPKI:0.00
PC:1750e     Total:1028103      MisBP:0   MisRate:0.00%    MPKI:0.00
PC:17610     Total:1362856      MisBP:0   MisRate:0.00%    MPKI:0.00
PC:174da     Total:1159476      MisBP:0   MisRate:0.00%    MPKI:0.00
PC:12ba4     Total:3      MisBP:0   MisRate:0.00%    MPKI:0.00
PC:175a0     Total:1409183      MisBP:0   MisRate:0.00%    MPKI:0.00
PC:1880a     Total:9414      MisBP:0   MisRate:0.00%    MPKI:0.00
PC:17628     Total:811644      MisBP:0   MisRate:0.00%    MPKI:0.00
PC:18892     Total:1      MisBP:0   MisRate:0.00%    MPKI:0.00
PC:13eea     Total:56511      MisBP:0   MisRate:0.00%    MPKI:0.00
PC:18664     Total:1181      MisBP:0   MisRate:0.00%    MPKI:0.00
PC:17510     Total:1027830      MisBP:0   MisRate:0.00%    MPKI:0.00
PC:17ae4     Total:19      MisBP:0   MisRate:0.00%    MPKI:0.00
PC:12b68     Total:1267      MisBP:0   MisRate:0.00%    MPKI:0.00
PC:293f8     Total:763      MisBP:0   MisRate:0.00%    MPKI:0.00
PC:18596     Total:15062      MisBP:0   MisRate:0.00%    MPKI:0.00
PC:1361a     Total:80      MisBP:0   MisRate:0.00%    MPKI:0.00
PC:17544     Total:500391      MisBP:0   MisRate:0.00%    MPKI:0.00
PC:17b12     Total:10      MisBP:0   MisRate:0.00%    MPKI:0.00
PC:12b96     Total:3      MisBP:0   MisRate:0.00%    MPKI:0.00
PC:17574     Total:1655849      MisBP:0   MisRate:0.00%    MPKI:0.00
PC:16cca     Total:233072      MisBP:0   MisRate:0.00%    MPKI:0.00
PC:17540     Total:500721      MisBP:0   MisRate:0.00%    MPKI:0.00
PC:17b14     Total:10      MisBP:0   MisRate:0.00%    MPKI:0.00
PC:12b98     Total:3      MisBP:0   MisRate:0.00%    MPKI:0.00
PC:29360     Total:242      MisBP:0   MisRate:0.00%    MPKI:0.00
PC:16c98     Total:3777783      MisBP:0   MisRate:0.00%    MPKI:0.00
PC:17542     Total:500566      MisBP:0   MisRate:0.00%    MPKI:0.00
PC:12b9a     Total:3      MisBP:0   MisRate:0.00%    MPKI:0.00
PC:17578     Total:1655100      MisBP:0   MisRate:0.00%    MPKI:0.00
PC:16cce     Total:233212      MisBP:0   MisRate:0.00%    MPKI:0.00
PC:16c9a     Total:3775792      MisBP:0   MisRate:0.00%    MPKI:0.00
PC:16c94     Total:3778318      MisBP:0   MisRate:0.00%    MPKI:0.00
PC:17b18     Total:10      MisBP:0   MisRate:0.00%    MPKI:0.00
PC:12b9c     Total:3      MisBP:0   MisRate:0.00%    MPKI:0.00
PC:29364     Total:238      MisBP:0   MisRate:0.00%    MPKI:0.00
PC:16cc4     Total:232790      MisBP:0   MisRate:0.00%    MPKI:0.00
PC:1757a     Total:1651213      MisBP:0   MisRate:0.00%    MPKI:0.00
PC:186a2     Total:512      MisBP:0   MisRate:0.00%    MPKI:0.00
PC:17b22     Total:78846      MisBP:0   MisRate:0.00%    MPKI:0.00
PC:12ba6     Total:2      MisBP:0   MisRate:0.00%    MPKI:0.00
PC:174e2     Total:1153911      MisBP:0   MisRate:0.00%    MPKI:0.00
PC:16cda     Total:225807      MisBP:0   MisRate:0.00%    MPKI:0.00
PC:29394     Total:364      MisBP:0   MisRate:0.00%    MPKI:0.00
PC:175aa     Total:1378409      MisBP:0   MisRate:0.00%    MPKI:0.00
PC:29350     Total:240      MisBP:0   MisRate:0.00%    MPKI:0.00
PC:17568     Total:1499144      MisBP:0   MisRate:0.00%    MPKI:0.00
PC:1757c     Total:1649368      MisBP:0   MisRate:0.00%    MPKI:0.00
PC:187e6     Total:9445      MisBP:0   MisRate:0.00%    MPKI:0.00
PC:16cd2     Total:233170      MisBP:0   MisRate:0.00%    MPKI:0.00
PC:174c2     Total:1199341      MisBP:0   MisRate:0.00%    MPKI:0.00
PC:17088     Total:177481      MisBP:0   MisRate:0.00%    MPKI:0.00
PC:13552     Total:19      MisBP:0   MisRate:0.00%    MPKI:0.00
PC:361b6     Total:177      MisBP:0   MisRate:0.00%    MPKI:0.00
PC:1020c     Total:58      MisBP:0   MisRate:0.00%    MPKI:0.00
PC:29728     Total:625      MisBP:0   MisRate:0.00%    MPKI:0.00
PC:17532     Total:994763      MisBP:0   MisRate:0.00%    MPKI:0.00
PC:12b8a     Total:3      MisBP:0   MisRate:0.00%    MPKI:0.00
PC:13740     Total:1      MisBP:0   MisRate:0.00%    MPKI:0.00
PC:10f82     Total:1600      MisBP:0   MisRate:0.00%    MPKI:0.00
PC:111d2     Total:715      MisBP:0   MisRate:0.00%    MPKI:0.00
PC:16cbe     Total:259538      MisBP:0   MisRate:0.00%    MPKI:0.00
PC:17630     Total:1084629      MisBP:0   MisRate:0.00%    MPKI:0.00
PC:13ef2     Total:56496      MisBP:0   MisRate:0.00%    MPKI:0.00
PC:17536     Total:980605      MisBP:0   MisRate:0.00%    MPKI:0.00
PC:17b0a     Total:4      MisBP:0   MisRate:0.00%    MPKI:0.00
PC:174ca     Total:1568347      MisBP:0   MisRate:0.00%    MPKI:0.00
PC:1753a     Total:979968      MisBP:0   MisRate:0.00%    MPKI:0.00
PC:17b0e     Total:10      MisBP:0   MisRate:0.00%    MPKI:0.00
PC:12b92     Total:3      MisBP:0   MisRate:0.00%    MPKI:0.00
PC:17570     Total:1663325      MisBP:0   MisRate:0.00%    MPKI:0.00
PC:187da     Total:9455      MisBP:0   MisRate:0.00%    MPKI:0.00
PC:16cc6     Total:233041      MisBP:0   MisRate:0.00%    MPKI:0.00
PC:13588     Total:714      MisBP:0   MisRate:0.00%    MPKI:0.00
PC:1879e     Total:101802      MisBP:0   MisRate:0.00%    MPKI:0.00
PC:11054     Total:197      MisBP:0   MisRate:0.00%    MPKI:0.00
PC:13812     Total:9      MisBP:0   MisRate:0.00%    MPKI:0.00
PC:295f0     Total:8488      MisBP:0   MisRate:0.00%    MPKI:0.00
PC:11056     Total:197      MisBP:0   MisRate:0.00%    MPKI:0.00
PC:13814     Total:9      MisBP:0   MisRate:0.00%    MPKI:0.00
PC:18794     Total:111098      MisBP:0   MisRate:0.00%    MPKI:0.00
PC:1105a     Total:197      MisBP:0   MisRate:0.00%    MPKI:0.00
PC:13818     Total:9      MisBP:0   MisRate:0.00%    MPKI:0.00
PC:1381a     Total:9      MisBP:0   MisRate:0.00%    MPKI:0.00
PC:295f8     Total:8480      MisBP:0   MisRate:0.00%    MPKI:0.00
PC:18798     Total:51166      MisBP:0   MisRate:0.00%    MPKI:0.00
PC:1105e     Total:970      MisBP:0   MisRate:0.00%    MPKI:0.00
PC:1381c     Total:9      MisBP:0   MisRate:0.00%    MPKI:0.00
PC:13820     Total:9      MisBP:0   MisRate:0.00%    MPKI:0.00
PC:1878e     Total:111101      MisBP:0   MisRate:0.00%    MPKI:0.00
PC:13822     Total:9      MisBP:0   MisRate:0.00%    MPKI:0.00
PC:29600     Total:8457      MisBP:0   MisRate:0.00%    MPKI:0.00
PC:13824     Total:9      MisBP:0   MisRate:0.00%    MPKI:0.00
PC:13826     Total:9      MisBP:0   MisRate:0.00%    MPKI:0.00
PC:29604     Total:8457      MisBP:0   MisRate:0.00%    MPKI:0.00
PC:187a4     Total:57      MisBP:0   MisRate:0.00%    MPKI:0.00
PC:13828     Total:9      MisBP:0   MisRate:0.00%    MPKI:0.00
PC:1382a     Total:9      MisBP:0   MisRate:0.00%    MPKI:0.00
PC:29608     Total:8457      MisBP:0   MisRate:0.00%    MPKI:0.00
PC:187a8     Total:57      MisBP:0   MisRate:0.00%    MPKI:0.00
PC:1382c     Total:9      MisBP:0   MisRate:0.00%    MPKI:0.00
PC:187aa     Total:57      MisBP:0   MisRate:0.00%    MPKI:0.00
PC:1382e     Total:9      MisBP:0   MisRate:0.00%    MPKI:0.00
PC:13804     Total:9      MisBP:0   MisRate:0.00%    MPKI:0.00
PC:135d0     Total:1102      MisBP:0   MisRate:0.00%    MPKI:0.00
PC:18550     Total:15576      MisBP:0   MisRate:0.00%    MPKI:0.00
PC:36238     Total:13      MisBP:0   MisRate:0.00%    MPKI:0.00
PC:135d4     Total:1102      MisBP:0   MisRate:0.00%    MPKI:0.00
PC:18554     Total:15576      MisBP:0   MisRate:0.00%    MPKI:0.00
PC:3623c     Total:13      MisBP:0   MisRate:0.00%    MPKI:0.00
PC:135d8     Total:1102      MisBP:0   MisRate:0.00%    MPKI:0.00
PC:1856c     Total:15422      MisBP:0   MisRate:0.00%    MPKI:0.00
PC:135f0     Total:1088      MisBP:0   MisRate:0.00%    MPKI:0.00
PC:135fc     Total:1085      MisBP:0   MisRate:0.00%    MPKI:0.00
PC:1877c     Total:44484      MisBP:0   MisRate:0.00%    MPKI:0.00
PC:11042     Total:1044      MisBP:0   MisRate:0.00%    MPKI:0.00
PC:13800     Total:9      MisBP:0   MisRate:0.00%    MPKI:0.00
PC:11046     Total:1040      MisBP:0   MisRate:0.00%    MPKI:0.00
PC:2960c     Total:8457      MisBP:0   MisRate:0.00%    MPKI:0.00
PC:11048     Total:1040      MisBP:0   MisRate:0.00%    MPKI:0.00
PC:13806     Total:9      MisBP:0   MisRate:0.00%    MPKI:0.00
PC:295e4     Total:8499      MisBP:0   MisRate:0.00%    MPKI:0.00
PC:18784     Total:111101      MisBP:0   MisRate:0.00%    MPKI:0.00
PC:1104a     Total:1033      MisBP:0   MisRate:0.00%    MPKI:0.00
PC:13808     Total:9      MisBP:0   MisRate:0.00%    MPKI:0.00
PC:18788     Total:111101      MisBP:0   MisRate:0.00%    MPKI:0.00
PC:1380c     Total:9      MisBP:0   MisRate:0.00%    MPKI:0.00
PC:1878a     Total:111101      MisBP:0   MisRate:0.00%    MPKI:0.00
PC:11050     Total:197      MisBP:0   MisRate:0.00%    MPKI:0.00
PC:1380e     Total:9      MisBP:0   MisRate:0.00%    MPKI:0.00
PC:295ec     Total:8496      MisBP:0   MisRate:0.00%    MPKI:0.00
PC:13810     Total:9      MisBP:0   MisRate:0.00%    MPKI:0.00
PC:185aa     Total:15031      MisBP:0   MisRate:0.00%    MPKI:0.00
PC:13608     Total:1014      MisBP:0   MisRate:0.00%    MPKI:0.00
PC:18588     Total:15106      MisBP:0   MisRate:0.00%    MPKI:0.00
PC:1858c     Total:15106      MisBP:0   MisRate:0.00%    MPKI:0.00
PC:13610     Total:84      MisBP:0   MisRate:0.00%    MPKI:0.00
PC:18590     Total:15106      MisBP:0   MisRate:0.00%    MPKI:0.00
PC:18594     Total:15101      MisBP:0   MisRate:0.00%    MPKI:0.00
PC:13618     Total:79      MisBP:0   MisRate:0.00%    MPKI:0.00
PC:13620     Total:79      MisBP:0   MisRate:0.00%    MPKI:0.00
PC:185a0     Total:15059      MisBP:0   MisRate:0.00%    MPKI:0.00
PC:13624     Total:79      MisBP:0   MisRate:0.00%    MPKI:0.00
PC:185a4     Total:15054      MisBP:0   MisRate:0.00%    MPKI:0.00
PC:13628     Total:79      MisBP:0   MisRate:0.00%    MPKI:0.00
PC:185a8     Total:15051      MisBP:0   MisRate:0.00%    MPKI:0.00
PC:1362c     Total:79      MisBP:0   MisRate:0.00%    MPKI:0.00
PC:13600     Total:997      MisBP:0   MisRate:0.00%    MPKI:0.00
PC:2940c     Total:2483      MisBP:0   MisRate:0.00%    MPKI:0.00
PC:13630     Total:71      MisBP:0   MisRate:0.00%    MPKI:0.00
PC:185ae     Total:1484455      MisBP:0   MisRate:0.00%    MPKI:0.00
PC:13632     Total:71      MisBP:0   MisRate:0.00%    MPKI:0.00
PC:29410     Total:2483      MisBP:0   MisRate:0.00%    MPKI:0.00
PC:13634     Total:71      MisBP:0   MisRate:0.00%    MPKI:0.00
PC:185b2     Total:1486062      MisBP:0   MisRate:0.00%    MPKI:0.00
PC:13636     Total:71      MisBP:0   MisRate:0.00%    MPKI:0.00
PC:29414     Total:2483      MisBP:0   MisRate:0.00%    MPKI:0.00
PC:1363a     Total:31      MisBP:0   MisRate:0.00%    MPKI:0.00
PC:29418     Total:2483      MisBP:0   MisRate:0.00%    MPKI:0.00
PC:1363e     Total:22      MisBP:0   MisRate:0.00%    MPKI:0.00
PC:2941c     Total:2483      MisBP:0   MisRate:0.00%    MPKI:0.00
PC:1383e     Total:9      MisBP:0   MisRate:0.00%    MPKI:0.00
PC:187ac     Total:57      MisBP:0   MisRate:0.00%    MPKI:0.00
PC:13830     Total:9      MisBP:0   MisRate:0.00%    MPKI:0.00
PC:187ae     Total:56      MisBP:0   MisRate:0.00%    MPKI:0.00
PC:13832     Total:9      MisBP:0   MisRate:0.00%    MPKI:0.00
PC:29610     Total:8457      MisBP:0   MisRate:0.00%    MPKI:0.00
PC:13834     Total:9      MisBP:0   MisRate:0.00%    MPKI:0.00
PC:187b2     Total:4      MisBP:0   MisRate:0.00%    MPKI:0.00
PC:13836     Total:9      MisBP:0   MisRate:0.00%    MPKI:0.00
PC:29614     Total:8457      MisBP:0   MisRate:0.00%    MPKI:0.00
PC:187b4     Total:4      MisBP:0   MisRate:0.00%    MPKI:0.00
PC:13838     Total:9      MisBP:0   MisRate:0.00%    MPKI:0.00
PC:1383c     Total:9      MisBP:0   MisRate:0.00%    MPKI:0.00
PC:187ba     Total:9501      MisBP:0   MisRate:0.00%    MPKI:0.00
PC:36234     Total:13      MisBP:0   MisRate:0.00%    MPKI:0.00
PC:2961c     Total:8457      MisBP:0   MisRate:0.00%    MPKI:0.00
PC:13ee6     Total:56513      MisBP:0   MisRate:0.00%    MPKI:0.00
PC:13ef6     Total:56494      MisBP:0   MisRate:0.00%    MPKI:0.00
PC:18e98     Total:40      MisBP:0   MisRate:0.00%    MPKI:0.00
PC:13f1c     Total:51642      MisBP:0   MisRate:0.00%    MPKI:0.00
PC:13f22     Total:51509      MisBP:0   MisRate:0.00%    MPKI:0.00
PC:18eae     Total:320      MisBP:0   MisRate:0.00%    MPKI:0.00
PC:13f32     Total:1      MisBP:0   MisRate:0.00%    MPKI:0.00
PC:13f0c     Total:2      MisBP:0   MisRate:0.00%    MPKI:0.00
PC:13f5a     Total:822      MisBP:0   MisRate:0.00%    MPKI:0.00
PC:18ee0     Total:1454      MisBP:0   MisRate:0.00%    MPKI:0.00
PC:13f64     Total:1      MisBP:0   MisRate:0.00%    MPKI:0.00
PC:1857c     Total:15312      MisBP:0   MisRate:0.00%    MPKI:0.00
PC:18756     Total:11      MisBP:0   MisRate:0.00%    MPKI:0.00
PC:18740     Total:99      MisBP:0   MisRate:0.00%    MPKI:0.00
PC:18744     Total:99      MisBP:0   MisRate:0.00%    MPKI:0.00
PC:137c8     Total:10      MisBP:0   MisRate:0.00%    MPKI:0.00
PC:137ca     Total:10      MisBP:0   MisRate:0.00%    MPKI:0.00
PC:295a8     Total:8549      MisBP:0   MisRate:0.00%    MPKI:0.00
PC:1874a     Total:99      MisBP:0   MisRate:0.00%    MPKI:0.00
PC:11010     Total:6218      MisBP:0   MisRate:0.00%    MPKI:0.00
PC:137ce     Total:10      MisBP:0   MisRate:0.00%    MPKI:0.00
PC:295ac     Total:8549      MisBP:0   MisRate:0.00%    MPKI:0.00
PC:137d2     Total:10      MisBP:0   MisRate:0.00%    MPKI:0.00
PC:295b0     Total:8547      MisBP:0   MisRate:0.00%    MPKI:0.00
PC:18752     Total:11      MisBP:0   MisRate:0.00%    MPKI:0.00
PC:137d6     Total:10      MisBP:0   MisRate:0.00%    MPKI:0.00
PC:295b4     Total:8547      MisBP:0   MisRate:0.00%    MPKI:0.00
PC:295a0     Total:8549      MisBP:0   MisRate:0.00%    MPKI:0.00
PC:1101c     Total:1106      MisBP:0   MisRate:0.00%    MPKI:0.00
PC:137da     Total:10      MisBP:0   MisRate:0.00%    MPKI:0.00
PC:295b8     Total:8547      MisBP:0   MisRate:0.00%    MPKI:0.00
PC:18758     Total:11      MisBP:0   MisRate:0.00%    MPKI:0.00
PC:1101e     Total:1105      MisBP:0   MisRate:0.00%    MPKI:0.00
PC:137dc     Total:10      MisBP:0   MisRate:0.00%    MPKI:0.00
PC:1875c     Total:11      MisBP:0   MisRate:0.00%    MPKI:0.00
PC:11022     Total:1100      MisBP:0   MisRate:0.00%    MPKI:0.00
PC:137e0     Total:10      MisBP:0   MisRate:0.00%    MPKI:0.00
PC:1875e     Total:11      MisBP:0   MisRate:0.00%    MPKI:0.00
PC:11024     Total:1098      MisBP:0   MisRate:0.00%    MPKI:0.00
PC:137e2     Total:10      MisBP:0   MisRate:0.00%    MPKI:0.00
PC:295c0     Total:8536      MisBP:0   MisRate:0.00%    MPKI:0.00
PC:18b0e     Total:1      MisBP:0   MisRate:0.00%    MPKI:0.00
PC:18abc     Total:1      MisBP:0   MisRate:0.00%    MPKI:0.00
PC:18abe     Total:1      MisBP:0   MisRate:0.00%    MPKI:0.00
PC:18aec     Total:3      MisBP:0   MisRate:0.00%    MPKI:0.00
PC:18af0     Total:3      MisBP:0   MisRate:0.00%    MPKI:0.00
PC:18af2     Total:3      MisBP:0   MisRate:0.00%    MPKI:0.00
PC:18af6     Total:3      MisBP:0   MisRate:0.00%    MPKI:0.00
PC:18af8     Total:3      MisBP:0   MisRate:0.00%    MPKI:0.00
PC:18afa     Total:3      MisBP:0   MisRate:0.00%    MPKI:0.00
PC:18afc     Total:3      MisBP:0   MisRate:0.00%    MPKI:0.00
PC:18afe     Total:3      MisBP:0   MisRate:0.00%    MPKI:0.00
PC:18b00     Total:3      MisBP:0   MisRate:0.00%    MPKI:0.00
PC:18b04     Total:3      MisBP:0   MisRate:0.00%    MPKI:0.00
PC:18b08     Total:3      MisBP:0   MisRate:0.00%    MPKI:0.00
PC:18b0c     Total:1      MisBP:0   MisRate:0.00%    MPKI:0.00
PC:18760     Total:11      MisBP:0   MisRate:0.00%    MPKI:0.00
PC:18b10     Total:1      MisBP:0   MisRate:0.00%    MPKI:0.00
PC:18b14     Total:1      MisBP:0   MisRate:0.00%    MPKI:0.00
PC:18b16     Total:1      MisBP:0   MisRate:0.00%    MPKI:0.00
PC:18b1a     Total:1      MisBP:0   MisRate:0.00%    MPKI:0.00
PC:18b1c     Total:1      MisBP:0   MisRate:0.00%    MPKI:0.00
PC:18b20     Total:1      MisBP:0   MisRate:0.00%    MPKI:0.00
PC:18b22     Total:1      MisBP:0   MisRate:0.00%    MPKI:0.00
PC:18b24     Total:1      MisBP:0   MisRate:0.00%    MPKI:0.00
PC:18b28     Total:3      MisBP:0   MisRate:0.00%    MPKI:0.00
PC:1873c     Total:43      MisBP:0   MisRate:0.00%    MPKI:0.00
PC:137c0     Total:787      MisBP:0   MisRate:0.00%    MPKI:0.00
PC:1873e     Total:117      MisBP:0   MisRate:0.00%    MPKI:0.00
PC:137c2     Total:787      MisBP:0   MisRate:0.00%    MPKI:0.00
PC:135a0     Total:180653      MisBP:0   MisRate:0.00%    MPKI:0.00
PC:1103e     Total:1073      MisBP:0   MisRate:0.00%    MPKI:0.00
PC:137fc     Total:10      MisBP:0   MisRate:0.00%    MPKI:0.00
PC:1877a     Total:44484      MisBP:0   MisRate:0.00%    MPKI:0.00
PC:11040     Total:1044      MisBP:0   MisRate:0.00%    MPKI:0.00
PC:137fe     Total:10      MisBP:0   MisRate:0.00%    MPKI:0.00
PC:295dc     Total:8522      MisBP:0   MisRate:0.00%    MPKI:0.00
PC:361c2     Total:174      MisBP:0   MisRate:0.00%    MPKI:0.00
PC:1355e     Total:755      MisBP:0   MisRate:0.00%    MPKI:0.00
PC:361d8     Total:137      MisBP:0   MisRate:0.00%    MPKI:0.00
PC:13574     Total:738      MisBP:0   MisRate:0.00%    MPKI:0.00
PC:361e8     Total:136      MisBP:0   MisRate:0.00%    MPKI:0.00
PC:13584     Total:714      MisBP:0   MisRate:0.00%    MPKI:0.00
PC:1851c     Total:1      MisBP:0   MisRate:0.00%    MPKI:0.00
PC:36204     Total:22      MisBP:0   MisRate:0.00%    MPKI:0.00
PC:295d8     Total:8522      MisBP:0   MisRate:0.00%    MPKI:0.00
PC:13bf4     Total:3353861      MisBP:0   MisRate:0.00%    MPKI:0.00
PC:13bb4     Total:3321915      MisBP:0   MisRate:0.00%    MPKI:0.00
PC:13bbc     Total:3319693      MisBP:0   MisRate:0.00%    MPKI:0.00
PC:13bd8     Total:3231718      MisBP:0   MisRate:0.00%    MPKI:0.00
PC:13bdc     Total:3212285      MisBP:0   MisRate:0.00%    MPKI:0.00
PC:13bea     Total:3363446      MisBP:0   MisRate:0.00%    MPKI:0.00
PC:13e96     Total:149773      MisBP:0   MisRate:0.00%    MPKI:0.00
PC:13ea0     Total:149734      MisBP:0   MisRate:0.00%    MPKI:0.00
PC:13eb6     Total:180802      MisBP:0   MisRate:0.00%    MPKI:0.00
PC:3622c     Total:21      MisBP:0   MisRate:0.00%    MPKI:0.00
PC:135c8     Total:253      MisBP:0   MisRate:0.00%    MPKI:0.00
PC:36230     Total:13      MisBP:0   MisRate:0.00%    MPKI:0.00
PC:135cc     Total:1102      MisBP:0   MisRate:0.00%    MPKI:0.00
PC:1876c     Total:10      MisBP:0   MisRate:0.00%    MPKI:0.00
PC:11026     Total:1098      MisBP:0   MisRate:0.00%    MPKI:0.00
PC:137e4     Total:10      MisBP:0   MisRate:0.00%    MPKI:0.00
PC:11028     Total:1097      MisBP:0   MisRate:0.00%    MPKI:0.00
PC:137e6     Total:10      MisBP:0   MisRate:0.00%    MPKI:0.00
PC:295c4     Total:8536      MisBP:0   MisRate:0.00%    MPKI:0.00
PC:18766     Total:10      MisBP:0   MisRate:0.00%    MPKI:0.00
PC:1102c     Total:1094      MisBP:0   MisRate:0.00%    MPKI:0.00
PC:137ea     Total:10      MisBP:0   MisRate:0.00%    MPKI:0.00
PC:295c8     Total:8536      MisBP:0   MisRate:0.00%    MPKI:0.00
PC:1876a     Total:10      MisBP:0   MisRate:0.00%    MPKI:0.00
PC:11030     Total:1076      MisBP:0   MisRate:0.00%    MPKI:0.00
PC:137ee     Total:10      MisBP:0   MisRate:0.00%    MPKI:0.00
PC:295cc     Total:8536      MisBP:0   MisRate:0.00%    MPKI:0.00
PC:185be     Total:126809      MisBP:0   MisRate:0.00%    MPKI:0.00
PC:137f0     Total:10      MisBP:0   MisRate:0.00%    MPKI:0.00
PC:1876e     Total:10      MisBP:0   MisRate:0.00%    MPKI:0.00
PC:11034     Total:1076      MisBP:0   MisRate:0.00%    MPKI:0.00
PC:137f2     Total:10      MisBP:0   MisRate:0.00%    MPKI:0.00
PC:295d0     Total:8526      MisBP:0   MisRate:0.00%    MPKI:0.00
PC:11036     Total:1075      MisBP:0   MisRate:0.00%    MPKI:0.00
PC:137f4     Total:10      MisBP:0   MisRate:0.00%    MPKI:0.00
PC:18772     Total:10      MisBP:0   MisRate:0.00%    MPKI:0.00
PC:137f6     Total:10      MisBP:0   MisRate:0.00%    MPKI:0.00
PC:295d4     Total:8522      MisBP:0   MisRate:0.00%    MPKI:0.00
PC:18776     Total:88968      MisBP:0   MisRate:0.00%    MPKI:0.00
PC:1103c     Total:1074      MisBP:0   MisRate:0.00%    MPKI:0.00
PC:137fa     Total:10      MisBP:0   MisRate:0.00%    MPKI:0.00
PC:12b46     Total:613      MisBP:0   MisRate:0.00%    MPKI:0.00
PC:29784     Total:604      MisBP:0   MisRate:0.00%    MPKI:0.00
PC:2944c     Total:2388      MisBP:0   MisRate:0.00%    MPKI:0.00
PC:294cc     Total:1626      MisBP:0   MisRate:0.00%    MPKI:0.00
PC:111f0     Total:677      MisBP:0   MisRate:0.00%    MPKI:0.00
PC:17afc     Total:13      MisBP:0   MisRate:0.00%    MPKI:0.00
PC:12b80     Total:3      MisBP:0   MisRate:0.00%    MPKI:0.00
PC:17b00     Total:9      MisBP:0   MisRate:0.00%    MPKI:0.00
PC:12b84     Total:3      MisBP:0   MisRate:0.00%    MPKI:0.00
PC:17b08     Total:9      MisBP:0   MisRate:0.00%    MPKI:0.00
PC:12b8c     Total:3      MisBP:0   MisRate:0.00%    MPKI:0.00
PC:12b94     Total:3      MisBP:0   MisRate:0.00%    MPKI:0.00
PC:17abe     Total:10      MisBP:0   MisRate:0.00%    MPKI:0.00
PC:12b42     Total:619      MisBP:0   MisRate:0.00%    MPKI:0.00
PC:17ac2     Total:9      MisBP:0   MisRate:0.00%    MPKI:0.00
PC:29774     Total:604      MisBP:0   MisRate:0.00%    MPKI:0.00
PC:16e2c     Total:667      MisBP:0   MisRate:0.00%    MPKI:0.00
PC:1e566     Total:57      MisBP:0   MisRate:0.00%    MPKI:0.00
PC:1466e     Total:613      MisBP:0   MisRate:0.00%    MPKI:0.00
PC:16e30     Total:667      MisBP:0   MisRate:0.00%    MPKI:0.00
PC:14672     Total:613      MisBP:0   MisRate:0.00%    MPKI:0.00
PC:187bc     Total:9500      MisBP:0   MisRate:0.00%    MPKI:0.00
PC:13840     Total:7      MisBP:0   MisRate:0.00%    MPKI:0.00
PC:187c0     Total:9463      MisBP:0   MisRate:0.00%    MPKI:0.00
PC:13844     Total:6      MisBP:0   MisRate:0.00%    MPKI:0.00
PC:187c4     Total:9463      MisBP:0   MisRate:0.00%    MPKI:0.00
PC:13848     Total:6      MisBP:0   MisRate:0.00%    MPKI:0.00
PC:187c8     Total:9462      MisBP:0   MisRate:0.00%    MPKI:0.00
PC:1384c     Total:6      MisBP:0   MisRate:0.00%    MPKI:0.00
PC:29650     Total:8456      MisBP:0   MisRate:0.00%    MPKI:0.00
PC:13856     Total:6      MisBP:0   MisRate:0.00%    MPKI:0.00
PC:29638     Total:8456      MisBP:0   MisRate:0.00%    MPKI:0.00
PC:1385a     Total:6      MisBP:0   MisRate:0.00%    MPKI:0.00
PC:2963c     Total:8456      MisBP:0   MisRate:0.00%    MPKI:0.00
PC:29640     Total:8456      MisBP:0   MisRate:0.00%    MPKI:0.00
PC:187de     Total:9455      MisBP:0   MisRate:0.00%    MPKI:0.00
PC:13862     Total:6      MisBP:0   MisRate:0.00%    MPKI:0.00
PC:29644     Total:8456      MisBP:0   MisRate:0.00%    MPKI:0.00
PC:187e2     Total:9455      MisBP:0   MisRate:0.00%    MPKI:0.00
PC:13866     Total:6      MisBP:0   MisRate:0.00%    MPKI:0.00
PC:29648     Total:8456      MisBP:0   MisRate:0.00%    MPKI:0.00
PC:2964c     Total:8456      MisBP:0   MisRate:0.00%    MPKI:0.00
[...]
PC:11016     Total:1154      MisBP:0   MisRate:0.00%    MPKI:0.00
PC:179f0     Total:4      MisBP:0   MisRate:0.00%    MPKI:0.00
PC:14754     Total:67      MisBP:0   MisRate:0.00%    MPKI:0.00
PC:1909c     Total:37      MisBP:0   MisRate:0.00%    MPKI:0.00
PC:16ddc     Total:2021      MisBP:0   MisRate:0.00%    MPKI:0.00
PC:1461e     Total:1343      MisBP:0   MisRate:0.00%    MPKI:0.00
PC:16af2     Total:14      MisBP:0   MisRate:0.00%    MPKI:0.00
PC:18fc6     Total:93      MisBP:0   MisRate:0.00%    MPKI:0.00
PC:17a34     Total:1      MisBP:0   MisRate:0.00%    MPKI:0.00
PC:16bcc     Total:10      MisBP:0   MisRate:0.00%    MPKI:0.00
PC:146f6     Total:1184      MisBP:0   MisRate:0.00%    MPKI:0.00
PC:17a38     Total:1      MisBP:0   MisRate:0.00%    MPKI:0.00
PC:1909e     Total:37      MisBP:0   MisRate:0.00%    MPKI:0.00
PC:10fb6     Total:1348      MisBP:0   MisRate:0.00%    MPKI:0.00
PC:16eb2     Total:51      MisBP:0   MisRate:0.00%    MPKI:0.00
PC:146f4     Total:1189      MisBP:0   MisRate:0.00%    MPKI:0.00
PC:17a32     Total:9      MisBP:0   MisRate:0.00%    MPKI:0.00
PC:16bc8     Total:10      MisBP:0   MisRate:0.00%    MPKI:0.00
PC:16eb0     Total:52      MisBP:0   MisRate:0.00%    MPKI:0.00
PC:146f2     Total:1190      MisBP:0   MisRate:0.00%    MPKI:0.00
PC:13770     Total:1      MisBP:0   MisRate:0.00%    MPKI:0.00
PC:17a3a     Total:1      MisBP:0   MisRate:0.00%    MPKI:0.00
PC:17a3c     Total:1      MisBP:0   MisRate:0.00%    MPKI:0.00
PC:179fc     Total:3      MisBP:0   MisRate:0.00%    MPKI:0.00
PC:10fb2     Total:1350      MisBP:0   MisRate:0.00%    MPKI:0.00
PC:16eae     Total:24      MisBP:0   MisRate:0.00%    MPKI:0.00
PC:17a00     Total:3      MisBP:0   MisRate:0.00%    MPKI:0.00
PC:17a02     Total:3      MisBP:0   MisRate:0.00%    MPKI:0.00
PC:16c20     Total:11      MisBP:0   MisRate:0.00%    MPKI:0.00
PC:29298     Total:1      MisBP:0   MisRate:0.00%    MPKI:0.00
PC:17c66     Total:7420      MisBP:0   MisRate:0.00%    MPKI:0.00
PC:17a1e     Total:14      MisBP:0   MisRate:0.00%    MPKI:0.00
PC:16f10     Total:10      MisBP:0   MisRate:0.00%    MPKI:0.00
PC:14752     Total:67      MisBP:0   MisRate:0.00%    MPKI:0.00
PC:16c26     Total:11      MisBP:0   MisRate:0.00%    MPKI:0.00
PC:169f6     Total:156      MisBP:0   MisRate:0.00%    MPKI:0.00
PC:17c60     Total:7446      MisBP:0   MisRate:0.00%    MPKI:0.00
PC:17a22     Total:14      MisBP:0   MisRate:0.00%    MPKI:0.00
PC:1474c     Total:67      MisBP:0   MisRate:0.00%    MPKI:0.00
PC:17a24     Total:14      MisBP:0   MisRate:0.00%    MPKI:0.00
PC:190f4     Total:28      MisBP:0   MisRate:0.00%    MPKI:0.00
PC:179e4     Total:4      MisBP:0   MisRate:0.00%    MPKI:0.00
PC:17a26     Total:14      MisBP:0   MisRate:0.00%    MPKI:0.00
PC:169f2     Total:156      MisBP:0   MisRate:0.00%    MPKI:0.00
PC:17c5c     Total:7465      MisBP:0   MisRate:0.00%    MPKI:0.00
PC:17a2a     Total:14      MisBP:0   MisRate:0.00%    MPKI:0.00
PC:16f08     Total:10      MisBP:0   MisRate:0.00%    MPKI:0.00
PC:1474a     Total:67      MisBP:0   MisRate:0.00%    MPKI:0.00
PC:190f2     Total:28      MisBP:0   MisRate:0.00%    MPKI:0.00
PC:29808     Total:540      MisBP:0   MisRate:0.00%    MPKI:0.00
PC:17a2c     Total:14      MisBP:0   MisRate:0.00%    MPKI:0.00
PC:17a2e     Total:14      MisBP:0   MisRate:0.00%    MPKI:0.00
PC:16af6     Total:14      MisBP:0   MisRate:0.00%    MPKI:0.00
PC:10f8a     Total:1589      MisBP:0   MisRate:0.00%    MPKI:0.00
PC:178b6     Total:4      MisBP:0   MisRate:0.00%    MPKI:0.00
PC:16c5c     Total:18      MisBP:0   MisRate:0.00%    MPKI:0.00
PC:1017c     Total:90      MisBP:0   MisRate:0.00%    MPKI:0.00
PC:16c60     Total:18      MisBP:0   MisRate:0.00%    MPKI:0.00
PC:29698     Total:628      MisBP:0   MisRate:0.00%    MPKI:0.00
PC:146cc     Total:147      MisBP:0   MisRate:0.00%    MPKI:0.00
PC:10f8e     Total:1589      MisBP:0   MisRate:0.00%    MPKI:0.00
PC:19074     Total:51      MisBP:0   MisRate:0.00%    MPKI:0.00
PC:16ba0     Total:11      MisBP:0   MisRate:0.00%    MPKI:0.00
PC:10178     Total:90      MisBP:0   MisRate:0.00%    MPKI:0.00
PC:29694     Total:628      MisBP:0   MisRate:0.00%    MPKI:0.00
PC:146c8     Total:274      MisBP:0   MisRate:0.00%    MPKI:0.00
PC:146ce     Total:147      MisBP:0   MisRate:0.00%    MPKI:0.00
PC:16b9c     Total:11      MisBP:0   MisRate:0.00%    MPKI:0.00
PC:16e84     Total:24      MisBP:0   MisRate:0.00%    MPKI:0.00
PC:146c6     Total:274      MisBP:0   MisRate:0.00%    MPKI:0.00
PC:16c62     Total:18      MisBP:0   MisRate:0.00%    MPKI:0.00
PC:16c64     Total:18      MisBP:0   MisRate:0.00%    MPKI:0.00
PC:1906e     Total:69      MisBP:0   MisRate:0.00%    MPKI:0.00
PC:178ae     Total:4      MisBP:0   MisRate:0.00%    MPKI:0.00
PC:10174     Total:90      MisBP:0   MisRate:0.00%    MPKI:0.00
PC:16c66     Total:18      MisBP:0   MisRate:0.00%    MPKI:0.00
PC:29690     Total:628      MisBP:0   MisRate:0.00%    MPKI:0.00
PC:146c4     Total:274      MisBP:0   MisRate:0.00%    MPKI:0.00
PC:1907e     Total:38      MisBP:0   MisRate:0.00%    MPKI:0.00
PC:296ac     Total:628      MisBP:0   MisRate:0.00%    MPKI:0.00
PC:16e9e     Total:24      MisBP:0   MisRate:0.00%    MPKI:0.00
PC:16c4e     Total:22      MisBP:0   MisRate:0.00%    MPKI:0.00
PC:146e0     Total:144      MisBP:0   MisRate:0.00%    MPKI:0.00
PC:16bb4     Total:11      MisBP:0   MisRate:0.00%    MPKI:0.00
PC:19088     Total:38      MisBP:0   MisRate:0.00%    MPKI:0.00
PC:146de     Total:147      MisBP:0   MisRate:0.00%    MPKI:0.00
PC:146da     Total:147      MisBP:0   MisRate:0.00%    MPKI:0.00
PC:19082     Total:38      MisBP:0   MisRate:0.00%    MPKI:0.00
PC:16c54     Total:19      MisBP:0   MisRate:0.00%    MPKI:0.00
PC:146d6     Total:146      MisBP:0   MisRate:0.00%    MPKI:0.00
PC:16c36     Total:9      MisBP:0   MisRate:0.00%    MPKI:0.00
PC:10184     Total:324      MisBP:0   MisRate:0.00%    MPKI:0.00
PC:1826a     Total:1      MisBP:0   MisRate:0.00%    MPKI:0.00
PC:296a0     Total:628      MisBP:0   MisRate:0.00%    MPKI:0.00
PC:16e92     Total:24      MisBP:0   MisRate:0.00%    MPKI:0.00
PC:16c58     Total:18      MisBP:0   MisRate:0.00%    MPKI:0.00
PC:16c5a     Total:18      MisBP:0   MisRate:0.00%    MPKI:0.00
PC:146d4     Total:146      MisBP:0   MisRate:0.00%    MPKI:0.00
PC:1907c     Total:51      MisBP:0   MisRate:0.00%    MPKI:0.00
PC:16ba8     Total:11      MisBP:0   MisRate:0.00%    MPKI:0.00
PC:146d2     Total:147      MisBP:0   MisRate:0.00%    MPKI:0.00
PC:16e8c     Total:24      MisBP:0   MisRate:0.00%    MPKI:0.00
PC:14778     Total:4      MisBP:0   MisRate:0.00%    MPKI:0.00
PC:19132     Total:26      MisBP:0   MisRate:0.00%    MPKI:0.00
PC:179d2     Total:9      MisBP:0   MisRate:0.00%    MPKI:0.00
PC:179d4     Total:9      MisBP:0   MisRate:0.00%    MPKI:0.00
PC:1912e     Total:26      MisBP:0   MisRate:0.00%    MPKI:0.00
PC:179d6     Total:9      MisBP:0   MisRate:0.00%    MPKI:0.00
PC:179da     Total:9      MisBP:0   MisRate:0.00%    MPKI:0.00
PC:16f3e     Total:11      MisBP:0   MisRate:0.00%    MPKI:0.00
PC:14780     Total:3      MisBP:0   MisRate:0.00%    MPKI:0.00
PC:18774     Total:10      MisBP:0   MisRate:0.00%    MPKI:0.00
PC:1103a     Total:1074      MisBP:0   MisRate:0.00%    MPKI:0.00
PC:16f36     Total:13      MisBP:0   MisRate:0.00%    MPKI:0.00
PC:19128     Total:27      MisBP:0   MisRate:0.00%    MPKI:0.00
PC:1476e     Total:4      MisBP:0   MisRate:0.00%    MPKI:0.00
PC:16f28     Total:10      MisBP:0   MisRate:0.00%    MPKI:0.00
PC:1476a     Total:4      MisBP:0   MisRate:0.00%    MPKI:0.00
PC:19112     Total:27      MisBP:0   MisRate:0.00%    MPKI:0.00
PC:14764     Total:16      MisBP:0   MisRate:0.00%    MPKI:0.00
PC:179dc     Total:4      MisBP:0   MisRate:0.00%    MPKI:0.00
PC:179e0     Total:4      MisBP:0   MisRate:0.00%    MPKI:0.00
PC:1910c     Total:27      MisBP:0   MisRate:0.00%    MPKI:0.00
PC:16f20     Total:10      MisBP:0   MisRate:0.00%    MPKI:0.00
PC:14762     Total:4      MisBP:0   MisRate:0.00%    MPKI:0.00
PC:16f1e     Total:10      MisBP:0   MisRate:0.00%    MPKI:0.00
PC:1104c     Total:1031      MisBP:0   MisRate:0.00%    MPKI:0.00
PC:16e80     Total:24      MisBP:0   MisRate:0.00%    MPKI:0.00
PC:16c70     Total:9      MisBP:0   MisRate:0.00%    MPKI:0.00
PC:16b98     Total:11      MisBP:0   MisRate:0.00%    MPKI:0.00
PC:178aa     Total:4      MisBP:0   MisRate:0.00%    MPKI:0.00
PC:10170     Total:90      MisBP:0   MisRate:0.00%    MPKI:0.00
PC:1906c     Total:69      MisBP:0   MisRate:0.00%    MPKI:0.00
PC:2968c     Total:628      MisBP:0   MisRate:0.00%    MPKI:0.00
PC:10f86     Total:1596      MisBP:0   MisRate:0.00%    MPKI:0.00
PC:146c0     Total:274      MisBP:0   MisRate:0.00%    MPKI:0.00
PC:19068     Total:69      MisBP:0   MisRate:0.00%    MPKI:0.00
PC:16c6a     Total:17      MisBP:0   MisRate:0.00%    MPKI:0.00
PC:16b94     Total:11      MisBP:0   MisRate:0.00%    MPKI:0.00
PC:179c8     Total:17      MisBP:1   MisRate:5.88%    MPKI:0.00
PC:178f4     Total:12      MisBP:1   MisRate:8.33%    MPKI:0.00
PC:18882     Total:2      MisBP:1   MisRate:50.00%    MPKI:0.00
PC:17806     Total:6      MisBP:1   MisRate:16.67%    MPKI:0.00
PC:137ec     Total:10      MisBP:1   MisRate:10.00%    MPKI:0.00
PC:1788e     Total:12      MisBP:1   MisRate:8.33%    MPKI:0.00
PC:12b8e     Total:3      MisBP:1   MisRate:33.33%    MPKI:0.00
PC:18870     Total:5      MisBP:1   MisRate:20.00%    MPKI:0.00
PC:29404     Total:759      MisBP:2   MisRate:0.26%    MPKI:0.00
PC:17440     Total:17      MisBP:2   MisRate:11.76%    MPKI:0.00
PC:13690     Total:55      MisBP:2   MisRate:3.64%    MPKI:0.00
PC:1884e     Total:4      MisBP:2   MisRate:50.00%    MPKI:0.00
PC:17c76     Total:25842      MisBP:2   MisRate:0.01%    MPKI:0.00
PC:16c6c     Total:16      MisBP:3   MisRate:18.75%    MPKI:0.00
PC:13bfe     Total:18114      MisBP:3   MisRate:0.02%    MPKI:0.00
PC:29470     Total:976      MisBP:3   MisRate:0.31%    MPKI:0.00
PC:1710c     Total:9      MisBP:3   MisRate:33.33%    MPKI:0.00
PC:1776e     Total:9      MisBP:3   MisRate:33.33%    MPKI:0.00
PC:178e0     Total:14      MisBP:3   MisRate:21.43%    MPKI:0.00
PC:186ea     Total:1041      MisBP:3   MisRate:0.29%    MPKI:0.00
PC:17018     Total:15      MisBP:3   MisRate:20.00%    MPKI:0.00
PC:17a30     Total:14      MisBP:3   MisRate:21.43%    MPKI:0.00
PC:16d7c     Total:59      MisBP:4   MisRate:6.78%    MPKI:0.00
PC:17b2e     Total:7785      MisBP:4   MisRate:0.05%    MPKI:0.00
PC:13644     Total:22      MisBP:4   MisRate:18.18%    MPKI:0.00
PC:17a1c     Total:14      MisBP:4   MisRate:28.57%    MPKI:0.00
PC:16d28     Total:59      MisBP:4   MisRate:6.78%    MPKI:0.00
PC:12b66     Total:1270      MisBP:5   MisRate:0.39%    MPKI:0.00
PC:16c52     Total:22      MisBP:5   MisRate:22.73%    MPKI:0.00
PC:12b78     Total:625      MisBP:5   MisRate:0.80%    MPKI:0.00
PC:1874e     Total:99      MisBP:5   MisRate:5.05%    MPKI:0.00
PC:1730e     Total:817      MisBP:5   MisRate:0.61%    MPKI:0.00
PC:17320     Total:93      MisBP:5   MisRate:5.38%    MPKI:0.00
PC:16e7c     Total:141      MisBP:5   MisRate:3.55%    MPKI:0.00
PC:16efe     Total:44      MisBP:6   MisRate:13.64%    MPKI:0.00
PC:297a0     Total:134      MisBP:6   MisRate:4.48%    MPKI:0.00
PC:186fe     Total:1102      MisBP:6   MisRate:0.54%    MPKI:0.00
PC:172d6     Total:86      MisBP:6   MisRate:6.98%    MPKI:0.00
PC:176fe     Total:13      MisBP:6   MisRate:46.15%    MPKI:0.00
PC:17aea     Total:19      MisBP:6   MisRate:31.58%    MPKI:0.00
PC:171dc     Total:15      MisBP:6   MisRate:40.00%    MPKI:0.00
PC:17946     Total:16      MisBP:6   MisRate:37.50%    MPKI:0.00
PC:17174     Total:15      MisBP:7   MisRate:46.67%    MPKI:0.00
PC:173a4     Total:95      MisBP:8   MisRate:8.42%    MPKI:0.00
PC:179b4     Total:21      MisBP:8   MisRate:38.10%    MPKI:0.00
PC:17244     Total:19      MisBP:8   MisRate:42.11%    MPKI:0.00
PC:29354     Total:240      MisBP:8   MisRate:3.33%    MPKI:0.00
PC:172fc     Total:87      MisBP:8   MisRate:9.20%    MPKI:0.00
PC:17cc8     Total:28      MisBP:8   MisRate:28.57%    MPKI:0.00
PC:177dc     Total:20      MisBP:9   MisRate:45.00%    MPKI:0.00
PC:10188     Total:81      MisBP:9   MisRate:11.11%    MPKI:0.00
PC:137c4     Total:786      MisBP:9   MisRate:1.15%    MPKI:0.00
PC:14604     Total:606      MisBP:9   MisRate:1.49%    MPKI:0.00
PC:16f30     Total:822      MisBP:9   MisRate:1.09%    MPKI:0.00
PC:1358e     Total:180931      MisBP:10   MisRate:0.01%    MPKI:0.00
PC:1787a     Total:18      MisBP:10   MisRate:55.56%    MPKI:0.00
PC:186d0     Total:4761      MisBP:10   MisRate:0.21%    MPKI:0.00
PC:13544     Total:168      MisBP:11   MisRate:6.55%    MPKI:0.00
PC:14700     Total:93      MisBP:14   MisRate:15.05%    MPKI:0.00
PC:1362e     Total:76      MisBP:17   MisRate:22.37%    MPKI:0.00
PC:173ce     Total:1139      MisBP:17   MisRate:1.49%    MPKI:0.00
PC:13672     Total:881      MisBP:17   MisRate:1.93%    MPKI:0.00
PC:17490     Total:121      MisBP:19   MisRate:15.70%    MPKI:0.00
PC:10158     Total:2976      MisBP:19   MisRate:0.64%    MPKI:0.00
PC:13668     Total:2029      MisBP:21   MisRate:1.03%    MPKI:0.00
PC:293c4     Total:828      MisBP:24   MisRate:2.90%    MPKI:0.00
PC:18f7c     Total:532      MisBP:27   MisRate:5.08%    MPKI:0.00
PC:13bae     Total:3325364      MisBP:29   MisRate:0.00%    MPKI:0.00
PC:1353e     Total:836      MisBP:29   MisRate:3.47%    MPKI:0.00
PC:17658     Total:202642      MisBP:30   MisRate:0.01%    MPKI:0.00
PC:29348     Total:900      MisBP:32   MisRate:3.56%    MPKI:0.00
PC:29818     Total:180      MisBP:32   MisRate:17.78%    MPKI:0.00
PC:14622     Total:9648      MisBP:32   MisRate:0.33%    MPKI:0.00
PC:16f68     Total:113      MisBP:33   MisRate:29.20%    MPKI:0.00
PC:187a2     Total:50901      MisBP:35   MisRate:0.07%    MPKI:0.00
PC:146b6     Total:1083      MisBP:35   MisRate:3.23%    MPKI:0.00
PC:18f04     Total:2903      MisBP:37   MisRate:1.27%    MPKI:0.00
PC:146c2     Total:274      MisBP:37   MisRate:13.50%    MPKI:0.00
PC:14606     Total:606      MisBP:37   MisRate:6.11%    MPKI:0.00
PC:13614     Total:79      MisBP:38   MisRate:48.10%    MPKI:0.00
PC:18a5e     Total:49      MisBP:39   MisRate:79.59%    MPKI:0.00
PC:18ed6     Total:300      MisBP:41   MisRate:13.67%    MPKI:0.00
PC:111de     Total:709      MisBP:41   MisRate:5.78%    MPKI:0.00
PC:1872a     Total:41209      MisBP:42   MisRate:0.10%    MPKI:0.00
PC:16ed0     Total:2783      MisBP:43   MisRate:1.55%    MPKI:0.00
PC:16cc0     Total:232857      MisBP:47   MisRate:0.02%    MPKI:0.00
PC:18a36     Total:2700721      MisBP:48   MisRate:0.00%    MPKI:0.00
PC:1360c     Total:1010      MisBP:53   MisRate:5.25%    MPKI:0.00
PC:29654     Total:8456      MisBP:56   MisRate:0.66%    MPKI:0.00
PC:13592     Total:180914      MisBP:60   MisRate:0.03%    MPKI:0.00
PC:16e70     Total:6039      MisBP:63   MisRate:1.04%    MPKI:0.00
PC:18ed0     Total:41354      MisBP:65   MisRate:0.16%    MPKI:0.00
PC:18ee6     Total:727      MisBP:65   MisRate:8.94%    MPKI:0.00
PC:18f26     Total:830      MisBP:67   MisRate:8.07%    MPKI:0.00
PC:18f5a     Total:377      MisBP:68   MisRate:18.04%    MPKI:0.00
PC:18f16     Total:666      MisBP:69   MisRate:10.36%    MPKI:0.00
PC:14708     Total:90      MisBP:75   MisRate:83.33%    MPKI:0.00
PC:293d0     Total:714      MisBP:75   MisRate:10.50%    MPKI:0.00
PC:17398     Total:1136      MisBP:76   MisRate:6.69%    MPKI:0.00
PC:1867e     Total:756      MisBP:77   MisRate:10.19%    MPKI:0.00
PC:16aa0     Total:110      MisBP:81   MisRate:73.64%    MPKI:0.00
PC:16f58     Total:1347      MisBP:84   MisRate:6.24%    MPKI:0.00
PC:175c0     Total:429135      MisBP:85   MisRate:0.02%    MPKI:0.00
PC:174bc     Total:1247656      MisBP:88   MisRate:0.01%    MPKI:0.00
PC:1737a     Total:1170      MisBP:90   MisRate:7.69%    MPKI:0.00
PC:10ecc     Total:131      MisBP:90   MisRate:68.70%    MPKI:0.00
PC:146f0     Total:1192      MisBP:92   MisRate:7.72%    MPKI:0.00
PC:10f9c     Total:1434      MisBP:102   MisRate:7.11%    MPKI:0.00
PC:1848c     Total:955300      MisBP:114   MisRate:0.01%    MPKI:0.00
PC:1104e     Total:1031      MisBP:137   MisRate:13.29%    MPKI:0.00
PC:146b0     Total:1552      MisBP:138   MisRate:8.89%    MPKI:0.00
PC:18644     Total:181998      MisBP:141   MisRate:0.08%    MPKI:0.00
PC:29804     Total:8586      MisBP:175   MisRate:2.04%    MPKI:0.00
PC:173bc     Total:1140      MisBP:179   MisRate:15.70%    MPKI:0.00
PC:16dce     Total:2040      MisBP:195   MisRate:9.56%    MPKI:0.00
PC:135c6     Total:798997      MisBP:196   MisRate:0.02%    MPKI:0.00
PC:1738c     Total:1009      MisBP:219   MisRate:21.70%    MPKI:0.00
PC:17b80     Total:53015      MisBP:258   MisRate:0.49%    MPKI:0.00
PC:174ce     Total:1567433      MisBP:266   MisRate:0.02%    MPKI:0.00
PC:186bc     Total:1556      MisBP:311   MisRate:19.99%    MPKI:0.00
PC:146a4     Total:2236      MisBP:350   MisRate:15.65%    MPKI:0.00
PC:146a6     Total:2233      MisBP:413   MisRate:18.50%    MPKI:0.00
PC:1359a     Total:180891      MisBP:436   MisRate:0.24%    MPKI:0.00
PC:16de0     Total:1992      MisBP:470   MisRate:23.59%    MPKI:0.00
PC:29454     Total:2383      MisBP:482   MisRate:20.23%    MPKI:0.00
PC:18674     Total:20838      MisBP:541   MisRate:2.60%    MPKI:0.00
PC:16e3e     Total:7889      MisBP:557   MisRate:7.06%    MPKI:0.00
PC:13bf6     Total:3352605      MisBP:655   MisRate:0.02%    MPKI:0.00
PC:13bd0     Total:3268892      MisBP:804   MisRate:0.02%    MPKI:0.00
PC:16e50     Total:7058      MisBP:1382   MisRate:19.58%    MPKI:0.00
PC:184f8     Total:4131123      MisBP:2371   MisRate:0.06%    MPKI:0.01
PC:13efe     Total:56483      MisBP:4158   MisRate:7.36%    MPKI:0.01
PC:17b64     Total:83107      MisBP:5456   MisRate:6.57%    MPKI:0.02
PC:17084     Total:185263      MisBP:7087   MisRate:3.83%    MPKI:0.02
PC:17632     Total:1083115      MisBP:9186   MisRate:0.85%    MPKI:0.03
PC:18782     Total:38888      MisBP:9589   MisRate:24.66%    MPKI:0.03
PC:185d8     Total:126125      MisBP:10238   MisRate:8.12%    MPKI:0.03
PC:17584     Total:1587413      MisBP:13452   MisRate:0.85%    MPKI:0.04
PC:18796     Total:110270      MisBP:14652   MisRate:13.29%    MPKI:0.05
PC:1759c     Total:1410519      MisBP:15495   MisRate:1.10%    MPKI:0.05
PC:17b76     Total:76109      MisBP:20389   MisRate:26.79%    MPKI:0.07
PC:13eb0     Total:149569      MisBP:27717   MisRate:18.53%    MPKI:0.09
PC:135aa     Total:778520      MisBP:41191   MisRate:5.29%    MPKI:0.13
PC:18628     Total:328737      MisBP:84386   MisRate:25.67%    MPKI:0.27
PC:185f2     Total:2220487      MisBP:95317   MisRate:4.29%    MPKI:0.31
PC:174e8     Total:1138497      MisBP:100827   MisRate:8.86%    MPKI:0.33
PC:1849a     Total:924036      MisBP:105155   MisRate:11.38%    MPKI:0.34
PC:1754e     Total:1171717      MisBP:109205   MisRate:9.32%    MPKI:0.35
PC:17690     Total:1192715      MisBP:119981   MisRate:10.06%    MPKI:0.39
PC:17500     Total:1028205      MisBP:119992   MisRate:11.67%    MPKI:0.39
PC:13bca     Total:3305886      MisBP:136364   MisRate:4.12%    MPKI:0.44
PC:17622     Total:1010922      MisBP:139215   MisRate:13.77%    MPKI:0.45
PC:174d4     Total:1536831      MisBP:156331   MisRate:10.17%    MPKI:0.50
PC:170ba     Total:2291914      MisBP:157049   MisRate:6.85%    MPKI:0.51
PC:1753e     Total:969758      MisBP:171708   MisRate:17.71%    MPKI:0.55
PC:184f2     Total:4346944      MisBP:180529   MisRate:4.15%    MPKI:0.58
PC:16cf6     Total:3016702      MisBP:231717   MisRate:7.68%    MPKI:0.75
PC:175f8     Total:1692960      MisBP:240409   MisRate:14.20%    MPKI:0.78
PC:17066     Total:2926098      MisBP:431244   MisRate:14.74%    MPKI:1.39
PC:17564     Total:5275293      MisBP:442624   MisRate:8.39%    MPKI:1.43
PC:16ca2     Total:3773738      MisBP:628140   MisRate:16.65%    MPKI:2.03
Totfetch:622523249  TotInsts:310000001  TotMis : inf%   MPKI : 12.39
=============finish sim!!!!!!=============
Done running SimPoint!
