Global frequency set at 1000000000000 ticks per second
 Register [printBranch()] ExitCallback !!!!!!! 
gem5 Simulator System.  https://www.gem5.org
gem5 is copyrighted software; use the --copyright option for details.

gem5 version 22.0.0.2
gem5 compiled Sep  7 2022 00:42:18
gem5 started Sep  7 2022 02:47:17
gem5 executing on a100, pid 2746235
command line: /data/zxf/gem5/gem5-prof/build/ARM/gem5.fast --outdir=/data/zxf/checkpoint/spec2006/429.mcf/prof/mcf_ckp_5 /data/zxf/gem5/gem5-prof/configs/example/se.py --cpu-type O3CPU --cpu-clock 1GHz --num-cpu 1 --l1d-hwp-type=BOPPrefetcher --caches --l2cache --l1i_size 32kB --l1d_size 32kB --l2_size 1MB --l1i_assoc 8 --l1d_assoc 8 --l2_assoc 16 --cacheline_size 64 --mem-type DDR3_2133_8x8 --mem-size 16GB --restore-simpoint-checkpoint -r 5 --checkpoint-dir /data/zxf/checkpoint/spec2006/429.mcf/ckpt -c mcf_base.gcc41-64bit -o inp.in

info: Standard input is not a terminal, disabling listeners.
Resuming from /data/zxf/checkpoint/spec2006/429.mcf/ckpt/cpt.simpoint_04_inst_146990000000_weight_0.005490_interval_300000000_warmup_10000000
Resuming from SimPoint #4, start_inst:146990000000, weight:0.005490, interval:300000000, warmup:10000000
Switch at curTick count:10000
Switched CPUS @ tick 86924845105500
[(<m5.objects.ArmCPU.ArmAtomicSimpleCPU object at 0x7fa806f6bbb0>, <m5.objects.ArmCPU.ArmO3CPU object at 0x7fa806f83e20>)]
switching cpus



+++++++++++++++++++++++++zxf print simpoint+++++++++++++++++++++++++++
Warmed up! Dumping and resetting stats!


=============start sim!!!!!!=============
new implicit arcs          : 27045002
active arcs                : 27328512
PC:11982     Total:1      MisBP:0   MisRate:0.00%    MPKI:0.00
PC:1e968     Total:1      MisBP:0   MisRate:0.00%    MPKI:0.00
PC:18d40     Total:6      MisBP:0   MisRate:0.00%    MPKI:0.00
PC:2eb1e     Total:9      MisBP:0   MisRate:0.00%    MPKI:0.00
PC:1e952     Total:2      MisBP:0   MisRate:0.00%    MPKI:0.00
PC:18d50     Total:1      MisBP:0   MisRate:0.00%    MPKI:0.00
PC:1095a     Total:3      MisBP:0   MisRate:0.00%    MPKI:0.00
PC:11bc4     Total:3090      MisBP:0   MisRate:0.00%    MPKI:0.00
PC:2eb2a     Total:10      MisBP:0   MisRate:0.00%    MPKI:0.00
PC:18d4c     Total:1      MisBP:0   MisRate:0.00%    MPKI:0.00
PC:30a6e     Total:3      MisBP:0   MisRate:0.00%    MPKI:0.00
PC:11940     Total:16      MisBP:0   MisRate:0.00%    MPKI:0.00
PC:217d6     Total:33      MisBP:0   MisRate:0.00%    MPKI:0.00
PC:2f730     Total:3      MisBP:0   MisRate:0.00%    MPKI:0.00
PC:1186c     Total:344572      MisBP:0   MisRate:0.00%    MPKI:0.00
PC:2e5dc     Total:1      MisBP:0   MisRate:0.00%    MPKI:0.00
PC:18d56     Total:1      MisBP:0   MisRate:0.00%    MPKI:0.00
PC:10956     Total:1      MisBP:0   MisRate:0.00%    MPKI:0.00
PC:2eb28     Total:10      MisBP:0   MisRate:0.00%    MPKI:0.00
PC:1e95c     Total:1      MisBP:0   MisRate:0.00%    MPKI:0.00
PC:18d34     Total:54      MisBP:0   MisRate:0.00%    MPKI:0.00
PC:217d4     Total:33      MisBP:0   MisRate:0.00%    MPKI:0.00
PC:2eb26     Total:10      MisBP:0   MisRate:0.00%    MPKI:0.00
PC:1e95a     Total:1      MisBP:0   MisRate:0.00%    MPKI:0.00
PC:2f72c     Total:3      MisBP:0   MisRate:0.00%    MPKI:0.00
PC:11868     Total:345897      MisBP:0   MisRate:0.00%    MPKI:0.00
PC:2e5d8     Total:1      MisBP:0   MisRate:0.00%    MPKI:0.00
PC:30aac     Total:1      MisBP:0   MisRate:0.00%    MPKI:0.00
PC:10952     Total:1      MisBP:0   MisRate:0.00%    MPKI:0.00
PC:18a38     Total:1      MisBP:0   MisRate:0.00%    MPKI:0.00
PC:2f72a     Total:3      MisBP:0   MisRate:0.00%    MPKI:0.00
PC:18dac     Total:10      MisBP:0   MisRate:0.00%    MPKI:0.00
PC:2efd6     Total:2      MisBP:0   MisRate:0.00%    MPKI:0.00
PC:2eb9a     Total:4      MisBP:0   MisRate:0.00%    MPKI:0.00
PC:18dbc     Total:3      MisBP:0   MisRate:0.00%    MPKI:0.00
PC:2eb96     Total:4      MisBP:0   MisRate:0.00%    MPKI:0.00
PC:18db8     Total:9      MisBP:0   MisRate:0.00%    MPKI:0.00
PC:2eb94     Total:4      MisBP:0   MisRate:0.00%    MPKI:0.00
PC:18db6     Total:9      MisBP:0   MisRate:0.00%    MPKI:0.00
PC:2eb92     Total:4      MisBP:0   MisRate:0.00%    MPKI:0.00
PC:18db4     Total:9      MisBP:0   MisRate:0.00%    MPKI:0.00
PC:2eb8e     Total:4      MisBP:0   MisRate:0.00%    MPKI:0.00
PC:18db0     Total:10      MisBP:0   MisRate:0.00%    MPKI:0.00
PC:2eb8c     Total:4      MisBP:0   MisRate:0.00%    MPKI:0.00
PC:18dae     Total:10      MisBP:0   MisRate:0.00%    MPKI:0.00
PC:2eb8a     Total:4      MisBP:0   MisRate:0.00%    MPKI:0.00
PC:2e5d6     Total:1      MisBP:0   MisRate:0.00%    MPKI:0.00
PC:2eb86     Total:4      MisBP:0   MisRate:0.00%    MPKI:0.00
PC:18da8     Total:10      MisBP:0   MisRate:0.00%    MPKI:0.00
PC:2eb84     Total:4      MisBP:0   MisRate:0.00%    MPKI:0.00
PC:18da6     Total:11      MisBP:0   MisRate:0.00%    MPKI:0.00
PC:2eb80     Total:4      MisBP:0   MisRate:0.00%    MPKI:0.00
PC:2eb7e     Total:4      MisBP:0   MisRate:0.00%    MPKI:0.00
PC:18da0     Total:5      MisBP:0   MisRate:0.00%    MPKI:0.00
PC:2eb7c     Total:4      MisBP:0   MisRate:0.00%    MPKI:0.00
PC:18d9e     Total:5      MisBP:0   MisRate:0.00%    MPKI:0.00
PC:2eb7a     Total:4      MisBP:0   MisRate:0.00%    MPKI:0.00
PC:2eb38     Total:12      MisBP:0   MisRate:0.00%    MPKI:0.00
PC:18d5a     Total:1      MisBP:0   MisRate:0.00%    MPKI:0.00
PC:1e96c     Total:1      MisBP:0   MisRate:0.00%    MPKI:0.00
PC:2eb34     Total:12      MisBP:0   MisRate:0.00%    MPKI:0.00
PC:18a1a     Total:1      MisBP:0   MisRate:0.00%    MPKI:0.00
PC:11ba6     Total:3763      MisBP:0   MisRate:0.00%    MPKI:0.00
PC:2eb0e     Total:5      MisBP:0   MisRate:0.00%    MPKI:0.00
PC:2eb0a     Total:5      MisBP:0   MisRate:0.00%    MPKI:0.00
PC:2f710     Total:3      MisBP:0   MisRate:0.00%    MPKI:0.00
PC:1184c     Total:6      MisBP:0   MisRate:0.00%    MPKI:0.00
PC:18a1c     Total:1      MisBP:0   MisRate:0.00%    MPKI:0.00
PC:11ba0     Total:3788      MisBP:0   MisRate:0.00%    MPKI:0.00
PC:2eb08     Total:5      MisBP:0   MisRate:0.00%    MPKI:0.00
PC:217b4     Total:74      MisBP:0   MisRate:0.00%    MPKI:0.00
PC:2e5ba     Total:2      MisBP:0   MisRate:0.00%    MPKI:0.00
PC:30a8e     Total:1      MisBP:0   MisRate:0.00%    MPKI:0.00
PC:2f824     Total:1      MisBP:0   MisRate:0.00%    MPKI:0.00
PC:11960     Total:9      MisBP:0   MisRate:0.00%    MPKI:0.00
PC:10934     Total:1      MisBP:0   MisRate:0.00%    MPKI:0.00
PC:1093c     Total:1      MisBP:0   MisRate:0.00%    MPKI:0.00
PC:11b9e     Total:3788      MisBP:0   MisRate:0.00%    MPKI:0.00
PC:2eb04     Total:5      MisBP:0   MisRate:0.00%    MPKI:0.00
PC:2eb02     Total:5      MisBP:0   MisRate:0.00%    MPKI:0.00
PC:162c0     Total:2      MisBP:0   MisRate:0.00%    MPKI:0.00
PC:217ae     Total:5      MisBP:0   MisRate:0.00%    MPKI:0.00
PC:2eafe     Total:5      MisBP:0   MisRate:0.00%    MPKI:0.00
PC:30a42     Total:3      MisBP:0   MisRate:0.00%    MPKI:0.00
PC:162bc     Total:2      MisBP:0   MisRate:0.00%    MPKI:0.00
PC:11914     Total:687125      MisBP:0   MisRate:0.00%    MPKI:0.00
PC:217aa     Total:5      MisBP:0   MisRate:0.00%    MPKI:0.00
PC:2eb72     Total:5      MisBP:0   MisRate:0.00%    MPKI:0.00
PC:2eb5a     Total:5      MisBP:0   MisRate:0.00%    MPKI:0.00
PC:18d7c     Total:9      MisBP:0   MisRate:0.00%    MPKI:0.00
PC:2eb56     Total:5      MisBP:0   MisRate:0.00%    MPKI:0.00
PC:18a32     Total:1      MisBP:0   MisRate:0.00%    MPKI:0.00
PC:30aaa     Total:1      MisBP:0   MisRate:0.00%    MPKI:0.00
PC:1197c     Total:1      MisBP:0   MisRate:0.00%    MPKI:0.00
PC:10950     Total:1      MisBP:0   MisRate:0.00%    MPKI:0.00
PC:11bba     Total:3732      MisBP:0   MisRate:0.00%    MPKI:0.00
PC:5463c     Total:4      MisBP:0   MisRate:0.00%    MPKI:0.00
PC:11a38     Total:4867      MisBP:0   MisRate:0.00%    MPKI:0.00
PC:217d0     Total:33      MisBP:0   MisRate:0.00%    MPKI:0.00
PC:2f726     Total:3      MisBP:0   MisRate:0.00%    MPKI:0.00
PC:11862     Total:347304      MisBP:0   MisRate:0.00%    MPKI:0.00
PC:2e5d2     Total:1      MisBP:0   MisRate:0.00%    MPKI:0.00
PC:30aa6     Total:1      MisBP:0   MisRate:0.00%    MPKI:0.00
PC:2f83c     Total:1      MisBP:0   MisRate:0.00%    MPKI:0.00
PC:11978     Total:10      MisBP:0   MisRate:0.00%    MPKI:0.00
PC:1094c     Total:1      MisBP:0   MisRate:0.00%    MPKI:0.00
PC:11466     Total:2      MisBP:0   MisRate:0.00%    MPKI:0.00
PC:11bb6     Total:3732      MisBP:0   MisRate:0.00%    MPKI:0.00
PC:54638     Total:12      MisBP:0   MisRate:0.00%    MPKI:0.00
PC:217cc     Total:33      MisBP:0   MisRate:0.00%    MPKI:0.00
PC:2eb10     Total:5      MisBP:0   MisRate:0.00%    MPKI:0.00
PC:30a54     Total:2      MisBP:0   MisRate:0.00%    MPKI:0.00
PC:162ce     Total:2      MisBP:0   MisRate:0.00%    MPKI:0.00
PC:11926     Total:5647      MisBP:0   MisRate:0.00%    MPKI:0.00
PC:217bc     Total:36      MisBP:0   MisRate:0.00%    MPKI:0.00
PC:2f716     Total:5      MisBP:0   MisRate:0.00%    MPKI:0.00
PC:11852     Total:5      MisBP:0   MisRate:0.00%    MPKI:0.00
PC:2e5c2     Total:2      MisBP:0   MisRate:0.00%    MPKI:0.00
PC:30a96     Total:1      MisBP:0   MisRate:0.00%    MPKI:0.00
PC:2f82c     Total:1      MisBP:0   MisRate:0.00%    MPKI:0.00
PC:11968     Total:9      MisBP:0   MisRate:0.00%    MPKI:0.00
PC:30052     Total:1      MisBP:0   MisRate:0.00%    MPKI:0.00
PC:118f4     Total:434087      MisBP:0   MisRate:0.00%    MPKI:0.00
PC:2edf8     Total:1      MisBP:0   MisRate:0.00%    MPKI:0.00
PC:2f7b6     Total:3      MisBP:0   MisRate:0.00%    MPKI:0.00
PC:118f2     Total:434139      MisBP:0   MisRate:0.00%    MPKI:0.00
PC:30060     Total:1      MisBP:0   MisRate:0.00%    MPKI:0.00
PC:3005c     Total:1      MisBP:0   MisRate:0.00%    MPKI:0.00
PC:2edf2     Total:1      MisBP:0   MisRate:0.00%    MPKI:0.00
PC:2f7b0     Total:3      MisBP:0   MisRate:0.00%    MPKI:0.00
PC:3005a     Total:1      MisBP:0   MisRate:0.00%    MPKI:0.00
PC:30058     Total:1      MisBP:0   MisRate:0.00%    MPKI:0.00
PC:2edee     Total:1      MisBP:0   MisRate:0.00%    MPKI:0.00
PC:2f7aa     Total:3      MisBP:0   MisRate:0.00%    MPKI:0.00
PC:118e6     Total:4934      MisBP:0   MisRate:0.00%    MPKI:0.00
PC:2f7a8     Total:3      MisBP:0   MisRate:0.00%    MPKI:0.00
PC:30066     Total:1      MisBP:0   MisRate:0.00%    MPKI:0.00
PC:2ede8     Total:1      MisBP:0   MisRate:0.00%    MPKI:0.00
PC:30050     Total:1      MisBP:0   MisRate:0.00%    MPKI:0.00
PC:3004c     Total:1      MisBP:0   MisRate:0.00%    MPKI:0.00
PC:2ede2     Total:2      MisBP:0   MisRate:0.00%    MPKI:0.00
PC:2edde     Total:2      MisBP:0   MisRate:0.00%    MPKI:0.00
PC:30046     Total:2      MisBP:0   MisRate:0.00%    MPKI:0.00
PC:30042     Total:2      MisBP:0   MisRate:0.00%    MPKI:0.00
PC:30eaa     Total:1      MisBP:0   MisRate:0.00%    MPKI:0.00
PC:30ea6     Total:1      MisBP:0   MisRate:0.00%    MPKI:0.00
PC:30e9e     Total:1      MisBP:0   MisRate:0.00%    MPKI:0.00
PC:30e9c     Total:1      MisBP:0   MisRate:0.00%    MPKI:0.00
PC:30e9a     Total:1      MisBP:0   MisRate:0.00%    MPKI:0.00
PC:30e96     Total:1      MisBP:0   MisRate:0.00%    MPKI:0.00
PC:30e94     Total:1      MisBP:0   MisRate:0.00%    MPKI:0.00
PC:1190e     Total:689943      MisBP:0   MisRate:0.00%    MPKI:0.00
PC:30a5a     Total:2      MisBP:0   MisRate:0.00%    MPKI:0.00
PC:2f7f0     Total:3      MisBP:0   MisRate:0.00%    MPKI:0.00
PC:162d4     Total:16      MisBP:0   MisRate:0.00%    MPKI:0.00
PC:1192c     Total:416172      MisBP:0   MisRate:0.00%    MPKI:0.00
PC:30a56     Total:2      MisBP:0   MisRate:0.00%    MPKI:0.00
PC:2f7ec     Total:3      MisBP:0   MisRate:0.00%    MPKI:0.00
PC:11928     Total:5640      MisBP:0   MisRate:0.00%    MPKI:0.00
PC:30a4e     Total:2      MisBP:0   MisRate:0.00%    MPKI:0.00
PC:162c8     Total:2      MisBP:0   MisRate:0.00%    MPKI:0.00
PC:2f7e4     Total:2      MisBP:0   MisRate:0.00%    MPKI:0.00
PC:11920     Total:5715      MisBP:0   MisRate:0.00%    MPKI:0.00
PC:2f7d2     Total:3      MisBP:0   MisRate:0.00%    MPKI:0.00
PC:30a3c     Total:2      MisBP:0   MisRate:0.00%    MPKI:0.00
PC:162b6     Total:2      MisBP:0   MisRate:0.00%    MPKI:0.00
PC:30e90     Total:1      MisBP:0   MisRate:0.00%    MPKI:0.00
PC:3007c     Total:1      MisBP:0   MisRate:0.00%    MPKI:0.00
PC:3007a     Total:1      MisBP:0   MisRate:0.00%    MPKI:0.00
PC:2f7cc     Total:3      MisBP:0   MisRate:0.00%    MPKI:0.00
PC:11908     Total:186      MisBP:0   MisRate:0.00%    MPKI:0.00
PC:30076     Total:1      MisBP:0   MisRate:0.00%    MPKI:0.00
PC:30074     Total:1      MisBP:0   MisRate:0.00%    MPKI:0.00
PC:2f7c8     Total:3      MisBP:0   MisRate:0.00%    MPKI:0.00
PC:11904     Total:186      MisBP:0   MisRate:0.00%    MPKI:0.00
PC:30072     Total:1      MisBP:0   MisRate:0.00%    MPKI:0.00
PC:30070     Total:1      MisBP:0   MisRate:0.00%    MPKI:0.00
PC:3006c     Total:1      MisBP:0   MisRate:0.00%    MPKI:0.00
PC:30068     Total:1      MisBP:0   MisRate:0.00%    MPKI:0.00
PC:2edfe     Total:1      MisBP:0   MisRate:0.00%    MPKI:0.00
PC:118f8     Total:428690      MisBP:0   MisRate:0.00%    MPKI:0.00
PC:18dcc     Total:1      MisBP:0   MisRate:0.00%    MPKI:0.00
PC:2efec     Total:2      MisBP:0   MisRate:0.00%    MPKI:0.00
PC:2ebb0     Total:4      MisBP:0   MisRate:0.00%    MPKI:0.00
PC:18dd2     Total:1      MisBP:0   MisRate:0.00%    MPKI:0.00
PC:10168     Total:4      MisBP:0   MisRate:0.00%    MPKI:0.00
PC:2ebae     Total:4      MisBP:0   MisRate:0.00%    MPKI:0.00
PC:18dd0     Total:1      MisBP:0   MisRate:0.00%    MPKI:0.00
PC:2efe8     Total:2      MisBP:0   MisRate:0.00%    MPKI:0.00
PC:2ebac     Total:4      MisBP:0   MisRate:0.00%    MPKI:0.00
PC:2f7e8     Total:2      MisBP:0   MisRate:0.00%    MPKI:0.00
PC:162cc     Total:2      MisBP:0   MisRate:0.00%    MPKI:0.00
PC:10164     Total:4      MisBP:0   MisRate:0.00%    MPKI:0.00
PC:304fc     Total:1      MisBP:0   MisRate:0.00%    MPKI:0.00
PC:2efe6     Total:2      MisBP:0   MisRate:0.00%    MPKI:0.00
PC:2ebaa     Total:4      MisBP:0   MisRate:0.00%    MPKI:0.00
PC:18dd4     Total:7      MisBP:0   MisRate:0.00%    MPKI:0.00
PC:2eba6     Total:4      MisBP:0   MisRate:0.00%    MPKI:0.00
PC:2efe0     Total:2      MisBP:0   MisRate:0.00%    MPKI:0.00
PC:2eba4     Total:4      MisBP:0   MisRate:0.00%    MPKI:0.00
PC:18dc6     Total:1      MisBP:0   MisRate:0.00%    MPKI:0.00
PC:2f7e0     Total:2      MisBP:0   MisRate:0.00%    MPKI:0.00
PC:30a4a     Total:2      MisBP:0   MisRate:0.00%    MPKI:0.00
PC:162c4     Total:4      MisBP:0   MisRate:0.00%    MPKI:0.00
PC:1015c     Total:4      MisBP:0   MisRate:0.00%    MPKI:0.00
PC:2eba0     Total:4      MisBP:0   MisRate:0.00%    MPKI:0.00
PC:2efda     Total:2      MisBP:0   MisRate:0.00%    MPKI:0.00
PC:2eb9c     Total:4      MisBP:0   MisRate:0.00%    MPKI:0.00
PC:18dbe     Total:3      MisBP:0   MisRate:0.00%    MPKI:0.00
PC:10154     Total:6      MisBP:0   MisRate:0.00%    MPKI:0.00
PC:101fc     Total:3      MisBP:0   MisRate:0.00%    MPKI:0.00
PC:2ebbe     Total:1      MisBP:0   MisRate:0.00%    MPKI:0.00
PC:30e8c     Total:2      MisBP:0   MisRate:0.00%    MPKI:0.00
PC:30e8a     Total:2      MisBP:0   MisRate:0.00%    MPKI:0.00
PC:30e88     Total:2      MisBP:0   MisRate:0.00%    MPKI:0.00
PC:30e86     Total:2      MisBP:0   MisRate:0.00%    MPKI:0.00
PC:30e84     Total:2      MisBP:0   MisRate:0.00%    MPKI:0.00
PC:30e80     Total:2      MisBP:0   MisRate:0.00%    MPKI:0.00
PC:30efa     Total:1      MisBP:0   MisRate:0.00%    MPKI:0.00
PC:30ef6     Total:1      MisBP:0   MisRate:0.00%    MPKI:0.00
PC:18066     Total:3      MisBP:0   MisRate:0.00%    MPKI:0.00
PC:30ef2     Total:1      MisBP:0   MisRate:0.00%    MPKI:0.00
PC:1805e     Total:3      MisBP:0   MisRate:0.00%    MPKI:0.00
PC:30eea     Total:1      MisBP:0   MisRate:0.00%    MPKI:0.00
PC:1805a     Total:1      MisBP:0   MisRate:0.00%    MPKI:0.00
PC:30ee6     Total:1      MisBP:0   MisRate:0.00%    MPKI:0.00
PC:18d78     Total:3      MisBP:0   MisRate:0.00%    MPKI:0.00
PC:18de0     Total:7      MisBP:0   MisRate:0.00%    MPKI:0.00
PC:2ebba     Total:1      MisBP:0   MisRate:0.00%    MPKI:0.00
PC:18ddc     Total:7      MisBP:0   MisRate:0.00%    MPKI:0.00
PC:2eff4     Total:2      MisBP:0   MisRate:0.00%    MPKI:0.00
PC:3025e     Total:1      MisBP:0   MisRate:0.00%    MPKI:0.00
PC:2ebb6     Total:1      MisBP:0   MisRate:0.00%    MPKI:0.00
PC:18dd8     Total:7      MisBP:0   MisRate:0.00%    MPKI:0.00
PC:2eff0     Total:2      MisBP:0   MisRate:0.00%    MPKI:0.00
PC:3025a     Total:1      MisBP:0   MisRate:0.00%    MPKI:0.00
PC:2ebb4     Total:4      MisBP:0   MisRate:0.00%    MPKI:0.00
PC:18dd6     Total:7      MisBP:0   MisRate:0.00%    MPKI:0.00
PC:2efee     Total:2      MisBP:0   MisRate:0.00%    MPKI:0.00
PC:30258     Total:1      MisBP:0   MisRate:0.00%    MPKI:0.00
PC:2ebb2     Total:4      MisBP:0   MisRate:0.00%    MPKI:0.00
PC:18d3e     Total:6      MisBP:0   MisRate:0.00%    MPKI:0.00
PC:2eb16     Total:11      MisBP:0   MisRate:0.00%    MPKI:0.00
PC:217d8     Total:33      MisBP:0   MisRate:0.00%    MPKI:0.00
PC:18d80     Total:9      MisBP:0   MisRate:0.00%    MPKI:0.00
PC:2eb5e     Total:5      MisBP:0   MisRate:0.00%    MPKI:0.00
PC:11434     Total:16625589      MisBP:0   MisRate:0.00%    MPKI:0.00
PC:18d7a     Total:3      MisBP:0   MisRate:0.00%    MPKI:0.00
PC:2eb78     Total:5      MisBP:0   MisRate:0.00%    MPKI:0.00
PC:18d9a     Total:5      MisBP:0   MisRate:0.00%    MPKI:0.00
PC:1142c     Total:16624935      MisBP:0   MisRate:0.00%    MPKI:0.00
PC:2eab2     Total:2      MisBP:0   MisRate:0.00%    MPKI:0.00
PC:2eb74     Total:5      MisBP:0   MisRate:0.00%    MPKI:0.00
PC:18d96     Total:5      MisBP:0   MisRate:0.00%    MPKI:0.00
PC:21814     Total:33      MisBP:0   MisRate:0.00%    MPKI:0.00
PC:11428     Total:16625064      MisBP:0   MisRate:0.00%    MPKI:0.00
PC:2eaae     Total:2      MisBP:0   MisRate:0.00%    MPKI:0.00
PC:18d38     Total:6      MisBP:0   MisRate:0.00%    MPKI:0.00
PC:54634     Total:8      MisBP:0   MisRate:0.00%    MPKI:0.00
PC:11a30     Total:4903      MisBP:0   MisRate:0.00%    MPKI:0.00
PC:30a60     Total:4      MisBP:0   MisRate:0.00%    MPKI:0.00
PC:162da     Total:8      MisBP:0   MisRate:0.00%    MPKI:0.00
PC:11932     Total:2      MisBP:0   MisRate:0.00%    MPKI:0.00
PC:217c8     Total:33      MisBP:0   MisRate:0.00%    MPKI:0.00
PC:30ea2     Total:1      MisBP:0   MisRate:0.00%    MPKI:0.00
PC:2ebfa     Total:3      MisBP:0   MisRate:0.00%    MPKI:0.00
PC:18e1c     Total:1      MisBP:0   MisRate:0.00%    MPKI:0.00
PC:2eb6e     Total:5      MisBP:0   MisRate:0.00%    MPKI:0.00
PC:217ee     Total:8      MisBP:0   MisRate:0.00%    MPKI:0.00
PC:18e28     Total:3      MisBP:0   MisRate:0.00%    MPKI:0.00
PC:2ec06     Total:2      MisBP:0   MisRate:0.00%    MPKI:0.00
PC:218c8     Total:14      MisBP:0   MisRate:0.00%    MPKI:0.00
PC:2eada     Total:3      MisBP:0   MisRate:0.00%    MPKI:0.00
PC:194ee     Total:1      MisBP:0   MisRate:0.00%    MPKI:0.00
PC:30536     Total:1      MisBP:0   MisRate:0.00%    MPKI:0.00
PC:1144c     Total:6      MisBP:0   MisRate:0.00%    MPKI:0.00
PC:18d3c     Total:6      MisBP:0   MisRate:0.00%    MPKI:0.00
PC:1e94e     Total:2      MisBP:0   MisRate:0.00%    MPKI:0.00
PC:2ea98     Total:2      MisBP:0   MisRate:0.00%    MPKI:0.00
PC:19592     Total:1      MisBP:0   MisRate:0.00%    MPKI:0.00
PC:21788     Total:1      MisBP:0   MisRate:0.00%    MPKI:0.00
PC:2eadc     Total:3      MisBP:0   MisRate:0.00%    MPKI:0.00
PC:194d2     Total:2      MisBP:0   MisRate:0.00%    MPKI:0.00
PC:2f80c     Total:5      MisBP:0   MisRate:0.00%    MPKI:0.00
PC:30a76     Total:3      MisBP:0   MisRate:0.00%    MPKI:0.00
PC:11948     Total:15      MisBP:0   MisRate:0.00%    MPKI:0.00
PC:19590     Total:1      MisBP:0   MisRate:0.00%    MPKI:0.00
PC:2ec1c     Total:7      MisBP:0   MisRate:0.00%    MPKI:0.00
PC:194e6     Total:1      MisBP:0   MisRate:0.00%    MPKI:0.00
PC:3052e     Total:2      MisBP:0   MisRate:0.00%    MPKI:0.00
PC:1019c     Total:8      MisBP:0   MisRate:0.00%    MPKI:0.00
PC:217e8     Total:8      MisBP:0   MisRate:0.00%    MPKI:0.00
PC:21780     Total:24      MisBP:0   MisRate:0.00%    MPKI:0.00
PC:2eab6     Total:2      MisBP:0   MisRate:0.00%    MPKI:0.00
PC:194ca     Total:2      MisBP:0   MisRate:0.00%    MPKI:0.00
PC:1147c     Total:20      MisBP:0   MisRate:0.00%    MPKI:0.00
PC:31814     Total:1      MisBP:0   MisRate:0.00%    MPKI:0.00
PC:194de     Total:1      MisBP:0   MisRate:0.00%    MPKI:0.00
PC:30526     Total:2      MisBP:0   MisRate:0.00%    MPKI:0.00
PC:2eb2c     Total:10      MisBP:0   MisRate:0.00%    MPKI:0.00
PC:18d4e     Total:1      MisBP:0   MisRate:0.00%    MPKI:0.00
PC:1e960     Total:1      MisBP:0   MisRate:0.00%    MPKI:0.00
PC:2eaa2     Total:6      MisBP:0   MisRate:0.00%    MPKI:0.00
PC:2f7f4     Total:3      MisBP:0   MisRate:0.00%    MPKI:0.00
PC:11930     Total:669868      MisBP:0   MisRate:0.00%    MPKI:0.00
PC:194e2     Total:1      MisBP:0   MisRate:0.00%    MPKI:0.00
PC:3052a     Total:2      MisBP:0   MisRate:0.00%    MPKI:0.00
PC:2181e     Total:30      MisBP:0   MisRate:0.00%    MPKI:0.00
PC:18d7e     Total:9      MisBP:0   MisRate:0.00%    MPKI:0.00
PC:2eb5c     Total:5      MisBP:0   MisRate:0.00%    MPKI:0.00
PC:18068     Total:3      MisBP:0   MisRate:0.00%    MPKI:0.00
PC:2ec4c     Total:7      MisBP:0   MisRate:0.00%    MPKI:0.00
PC:30a7e     Total:4      MisBP:0   MisRate:0.00%    MPKI:0.00
PC:2f814     Total:3      MisBP:0   MisRate:0.00%    MPKI:0.00
PC:2525a     Total:2      MisBP:0   MisRate:0.00%    MPKI:0.00
PC:11950     Total:9      MisBP:0   MisRate:0.00%    MPKI:0.00
PC:217e6     Total:8      MisBP:0   MisRate:0.00%    MPKI:0.00
PC:162d8     Total:8      MisBP:0   MisRate:0.00%    MPKI:0.00
PC:2eb4c     Total:1      MisBP:0   MisRate:0.00%    MPKI:0.00
PC:2eaca     Total:3      MisBP:0   MisRate:0.00%    MPKI:0.00
PC:2f754     Total:1      MisBP:0   MisRate:0.00%    MPKI:0.00
PC:1097a     Total:2      MisBP:0   MisRate:0.00%    MPKI:0.00
PC:11be4     Total:171239      MisBP:0   MisRate:0.00%    MPKI:0.00
PC:2eacc     Total:3      MisBP:0   MisRate:0.00%    MPKI:0.00
PC:2eb52     Total:5      MisBP:0   MisRate:0.00%    MPKI:0.00
PC:2ead0     Total:3      MisBP:0   MisRate:0.00%    MPKI:0.00
PC:21800     Total:2      MisBP:0   MisRate:0.00%    MPKI:0.00
PC:2ead2     Total:3      MisBP:0   MisRate:0.00%    MPKI:0.00
PC:21804     Total:2      MisBP:0   MisRate:0.00%    MPKI:0.00
PC:2180c     Total:2      MisBP:0   MisRate:0.00%    MPKI:0.00
PC:2180e     Total:2      MisBP:0   MisRate:0.00%    MPKI:0.00
PC:2eb62     Total:5      MisBP:0   MisRate:0.00%    MPKI:0.00
PC:31806     Total:3      MisBP:0   MisRate:0.00%    MPKI:0.00
PC:2eaaa     Total:2      MisBP:0   MisRate:0.00%    MPKI:0.00
PC:2eb6a     Total:5      MisBP:0   MisRate:0.00%    MPKI:0.00
PC:21816     Total:5      MisBP:0   MisRate:0.00%    MPKI:0.00
PC:194e0     Total:1      MisBP:0   MisRate:0.00%    MPKI:0.00
PC:10190     Total:4      MisBP:0   MisRate:0.00%    MPKI:0.00
PC:112ea     Total:1      MisBP:0   MisRate:0.00%    MPKI:0.00
PC:217de     Total:33      MisBP:0   MisRate:0.00%    MPKI:0.00
PC:2ea9a     Total:20      MisBP:0   MisRate:0.00%    MPKI:0.00
PC:30a7a     Total:4      MisBP:0   MisRate:0.00%    MPKI:0.00
PC:25256     Total:2      MisBP:0   MisRate:0.00%    MPKI:0.00
PC:1194c     Total:15      MisBP:0   MisRate:0.00%    MPKI:0.00
PC:217e2     Total:8      MisBP:0   MisRate:0.00%    MPKI:0.00
PC:2ea9e     Total:2      MisBP:0   MisRate:0.00%    MPKI:0.00
PC:1146e     Total:2      MisBP:0   MisRate:0.00%    MPKI:0.00
PC:2eae2     Total:3      MisBP:0   MisRate:0.00%    MPKI:0.00
PC:30a82     Total:4      MisBP:0   MisRate:0.00%    MPKI:0.00
PC:2525e     Total:2      MisBP:0   MisRate:0.00%    MPKI:0.00
PC:11954     Total:9      MisBP:0   MisRate:0.00%    MPKI:0.00
PC:217ea     Total:8      MisBP:0   MisRate:0.00%    MPKI:0.00
PC:18e24     Total:3      MisBP:0   MisRate:0.00%    MPKI:0.00
PC:2ec02     Total:2      MisBP:0   MisRate:0.00%    MPKI:0.00
PC:218c4     Total:10      MisBP:0   MisRate:0.00%    MPKI:0.00
PC:2eaa6     Total:2      MisBP:0   MisRate:0.00%    MPKI:0.00
PC:1958c     Total:1      MisBP:0   MisRate:0.00%    MPKI:0.00
PC:21782     Total:4      MisBP:0   MisRate:0.00%    MPKI:0.00
PC:2ead6     Total:3      MisBP:0   MisRate:0.00%    MPKI:0.00
PC:11abc     Total:3      MisBP:0   MisRate:0.00%    MPKI:0.00
PC:2178c     Total:1      MisBP:0   MisRate:0.00%    MPKI:0.00
PC:2eae0     Total:3      MisBP:0   MisRate:0.00%    MPKI:0.00
PC:2eaf8     Total:5      MisBP:0   MisRate:0.00%    MPKI:0.00
PC:217c0     Total:33      MisBP:0   MisRate:0.00%    MPKI:0.00
PC:162ca     Total:2      MisBP:0   MisRate:0.00%    MPKI:0.00
PC:11922     Total:5672      MisBP:0   MisRate:0.00%    MPKI:0.00
PC:217b8     Total:37      MisBP:0   MisRate:0.00%    MPKI:0.00
PC:2e5be     Total:2      MisBP:0   MisRate:0.00%    MPKI:0.00
PC:2f828     Total:1      MisBP:0   MisRate:0.00%    MPKI:0.00
PC:30a92     Total:1      MisBP:0   MisRate:0.00%    MPKI:0.00
PC:11964     Total:9      MisBP:0   MisRate:0.00%    MPKI:0.00
PC:10938     Total:1      MisBP:0   MisRate:0.00%    MPKI:0.00
PC:11ba2     Total:3788      MisBP:0   MisRate:0.00%    MPKI:0.00
PC:217b2     Total:37      MisBP:0   MisRate:0.00%    MPKI:0.00
PC:217a8     Total:1      MisBP:0   MisRate:0.00%    MPKI:0.00
PC:217a6     Total:1      MisBP:0   MisRate:0.00%    MPKI:0.00
PC:217a4     Total:1      MisBP:0   MisRate:0.00%    MPKI:0.00
PC:1192a     Total:416400      MisBP:0   MisRate:0.00%    MPKI:0.00
PC:30a3a     Total:2      MisBP:0   MisRate:0.00%    MPKI:0.00
PC:162b4     Total:10      MisBP:0   MisRate:0.00%    MPKI:0.00
PC:1190c     Total:690086      MisBP:0   MisRate:0.00%    MPKI:0.00
PC:217a2     Total:1      MisBP:0   MisRate:0.00%    MPKI:0.00
PC:2eaf6     Total:5      MisBP:0   MisRate:0.00%    MPKI:0.00
PC:217a0     Total:1      MisBP:0   MisRate:0.00%    MPKI:0.00
PC:2179e     Total:1      MisBP:0   MisRate:0.00%    MPKI:0.00
PC:2eaf2     Total:5      MisBP:0   MisRate:0.00%    MPKI:0.00
PC:2179c     Total:1      MisBP:0   MisRate:0.00%    MPKI:0.00
PC:21798     Total:2      MisBP:0   MisRate:0.00%    MPKI:0.00
PC:2eaec     Total:5      MisBP:0   MisRate:0.00%    MPKI:0.00
PC:21796     Total:1      MisBP:0   MisRate:0.00%    MPKI:0.00
PC:1959e     Total:1      MisBP:0   MisRate:0.00%    MPKI:0.00
PC:21794     Total:1      MisBP:0   MisRate:0.00%    MPKI:0.00
PC:1198e     Total:1      MisBP:0   MisRate:0.00%    MPKI:0.00
PC:2eb3e     Total:13      MisBP:0   MisRate:0.00%    MPKI:0.00
PC:2e5f0     Total:1      MisBP:0   MisRate:0.00%    MPKI:0.00
PC:11996     Total:1      MisBP:0   MisRate:0.00%    MPKI:0.00
PC:1096a     Total:2      MisBP:0   MisRate:0.00%    MPKI:0.00
PC:2f740     Total:1      MisBP:0   MisRate:0.00%    MPKI:0.00
PC:1187c     Total:497438      MisBP:0   MisRate:0.00%    MPKI:0.00
PC:2e5ec     Total:1      MisBP:0   MisRate:0.00%    MPKI:0.00
PC:10966     Total:3      MisBP:0   MisRate:0.00%    MPKI:0.00
PC:11bd0     Total:171813      MisBP:0   MisRate:0.00%    MPKI:0.00
PC:2eb3a     Total:13      MisBP:0   MisRate:0.00%    MPKI:0.00
PC:18d5c     Total:1      MisBP:0   MisRate:0.00%    MPKI:0.00
PC:2f73c     Total:3      MisBP:0   MisRate:0.00%    MPKI:0.00
PC:11878     Total:499636      MisBP:0   MisRate:0.00%    MPKI:0.00
PC:2e5e8     Total:2      MisBP:0   MisRate:0.00%    MPKI:0.00
PC:2eae8     Total:3      MisBP:0   MisRate:0.00%    MPKI:0.00
PC:10962     Total:3      MisBP:0   MisRate:0.00%    MPKI:0.00
PC:2eb36     Total:12      MisBP:0   MisRate:0.00%    MPKI:0.00
PC:30a72     Total:3      MisBP:0   MisRate:0.00%    MPKI:0.00
PC:11944     Total:15      MisBP:0   MisRate:0.00%    MPKI:0.00
PC:217da     Total:33      MisBP:0   MisRate:0.00%    MPKI:0.00
PC:218b4     Total:8      MisBP:0   MisRate:0.00%    MPKI:0.00
PC:54630     Total:32      MisBP:0   MisRate:0.00%    MPKI:0.00
PC:30a5c     Total:2      MisBP:0   MisRate:0.00%    MPKI:0.00
PC:1192e     Total:669918      MisBP:0   MisRate:0.00%    MPKI:0.00
PC:217c4     Total:33      MisBP:0   MisRate:0.00%    MPKI:0.00
PC:5462c     Total:8      MisBP:0   MisRate:0.00%    MPKI:0.00
PC:11a28     Total:4837      MisBP:0   MisRate:0.00%    MPKI:0.00
PC:30a58     Total:2      MisBP:0   MisRate:0.00%    MPKI:0.00
PC:162d2     Total:8      MisBP:0   MisRate:0.00%    MPKI:0.00
PC:10194     Total:8      MisBP:0   MisRate:0.00%    MPKI:0.00
PC:2f736     Total:3      MisBP:0   MisRate:0.00%    MPKI:0.00
PC:2e5e2     Total:1      MisBP:0   MisRate:0.00%    MPKI:0.00
PC:11bc6     Total:3080      MisBP:0   MisRate:0.00%    MPKI:0.00
PC:2eb30     Total:12      MisBP:0   MisRate:0.00%    MPKI:0.00
PC:18d52     Total:1      MisBP:0   MisRate:0.00%    MPKI:0.00
PC:1e964     Total:1      MisBP:0   MisRate:0.00%    MPKI:0.00
PC:30ea0     Total:1      MisBP:0   MisRate:0.00%    MPKI:0.00
PC:2ebf8     Total:3      MisBP:0   MisRate:0.00%    MPKI:0.00
PC:18e1a     Total:1      MisBP:0   MisRate:0.00%    MPKI:0.00
PC:194fa     Total:1      MisBP:0   MisRate:0.00%    MPKI:0.00
PC:317ac     Total:1      MisBP:0   MisRate:0.00%    MPKI:0.00
PC:10972     Total:2      MisBP:0   MisRate:0.00%    MPKI:0.00
PC:11bdc     Total:171418      MisBP:0   MisRate:0.00%    MPKI:0.00
PC:194e4     Total:1      MisBP:0   MisRate:0.00%    MPKI:0.00
PC:194ce     Total:2      MisBP:0   MisRate:0.00%    MPKI:0.00
PC:3052c     Total:2      MisBP:0   MisRate:0.00%    MPKI:0.00
PC:1e97e     Total:1      MisBP:0   MisRate:0.00%    MPKI:0.00
PC:2f750     Total:1      MisBP:0   MisRate:0.00%    MPKI:0.00
PC:1188c     Total:3381      MisBP:0   MisRate:0.00%    MPKI:0.00
PC:10976     Total:2      MisBP:0   MisRate:0.00%    MPKI:0.00
PC:11be0     Total:171317      MisBP:0   MisRate:0.00%    MPKI:0.00
PC:2eac8     Total:3      MisBP:0   MisRate:0.00%    MPKI:0.00
PC:2eb48     Total:2      MisBP:0   MisRate:0.00%    MPKI:0.00
PC:18d6a     Total:54      MisBP:0   MisRate:0.00%    MPKI:0.00
PC:1e97c     Total:1      MisBP:0   MisRate:0.00%    MPKI:0.00
PC:2eac6     Total:1      MisBP:0   MisRate:0.00%    MPKI:0.00
PC:11478     Total:2      MisBP:0   MisRate:0.00%    MPKI:0.00
PC:19598     Total:1      MisBP:0   MisRate:0.00%    MPKI:0.00
PC:2178e     Total:1      MisBP:0   MisRate:0.00%    MPKI:0.00
PC:2f738     Total:3      MisBP:0   MisRate:0.00%    MPKI:0.00
PC:1959c     Total:1      MisBP:0   MisRate:0.00%    MPKI:0.00
PC:21792     Total:1      MisBP:0   MisRate:0.00%    MPKI:0.00
PC:1959a     Total:1      MisBP:0   MisRate:0.00%    MPKI:0.00
PC:21790     Total:1      MisBP:0   MisRate:0.00%    MPKI:0.00
PC:2eae4     Total:3      MisBP:0   MisRate:0.00%    MPKI:0.00
PC:2178a     Total:1      MisBP:0   MisRate:0.00%    MPKI:0.00
PC:2eade     Total:3      MisBP:0   MisRate:0.00%    MPKI:0.00
PC:1958e     Total:1      MisBP:0   MisRate:0.00%    MPKI:0.00
PC:21784     Total:4      MisBP:0   MisRate:0.00%    MPKI:0.00
PC:2eb44     Total:80      MisBP:0   MisRate:0.00%    MPKI:0.00
PC:2eb40     Total:36      MisBP:0   MisRate:0.00%    MPKI:0.00
PC:18d62     Total:1      MisBP:0   MisRate:0.00%    MPKI:0.00
PC:1e974     Total:1      MisBP:0   MisRate:0.00%    MPKI:0.00
PC:217ec     Total:8      MisBP:0   MisRate:0.00%    MPKI:0.00
PC:11a2a     Total:4835      MisBP:0   MisRate:0.00%    MPKI:0.00
PC:11874     Total:500838      MisBP:0   MisRate:0.00%    MPKI:0.00
PC:2e5e4     Total:1      MisBP:0   MisRate:0.00%    MPKI:0.00
PC:1198a     Total:1      MisBP:0   MisRate:0.00%    MPKI:0.00
PC:1095e     Total:3      MisBP:0   MisRate:0.00%    MPKI:0.00
PC:11bc8     Total:3127      MisBP:0   MisRate:0.00%    MPKI:0.00
PC:2eab0     Total:2      MisBP:0   MisRate:0.00%    MPKI:0.00
PC:30a88     Total:4      MisBP:0   MisRate:0.00%    MPKI:0.00
PC:2f81e     Total:1      MisBP:0   MisRate:0.00%    MPKI:0.00
PC:1195a     Total:9      MisBP:0   MisRate:0.00%    MPKI:0.00
PC:2eaac     Total:2      MisBP:0   MisRate:0.00%    MPKI:0.00
PC:2f748     Total:1      MisBP:0   MisRate:0.00%    MPKI:0.00
PC:11884     Total:203      MisBP:0   MisRate:0.00%    MPKI:0.00
PC:1096e     Total:2      MisBP:0   MisRate:0.00%    MPKI:0.00
PC:11bd8     Total:171519      MisBP:0   MisRate:0.00%    MPKI:0.00
PC:1145e     Total:2      MisBP:0   MisRate:0.00%    MPKI:0.00
PC:162be     Total:2      MisBP:0   MisRate:0.00%    MPKI:0.00
PC:11916     Total:686806      MisBP:0   MisRate:0.00%    MPKI:0.00
PC:2f7d6     Total:3      MisBP:0   MisRate:0.00%    MPKI:0.00
PC:30a40     Total:2      MisBP:0   MisRate:0.00%    MPKI:0.00
PC:162ba     Total:4      MisBP:0   MisRate:0.00%    MPKI:0.00
PC:11912     Total:687379      MisBP:0   MisRate:0.00%    MPKI:0.00
PC:2f7ce     Total:3      MisBP:0   MisRate:0.00%    MPKI:0.00
PC:1190a     Total:185      MisBP:0   MisRate:0.00%    MPKI:0.00
PC:2f7c4     Total:3      MisBP:0   MisRate:0.00%    MPKI:0.00
PC:11900     Total:187      MisBP:0   MisRate:0.00%    MPKI:0.00
PC:2f7c0     Total:3      MisBP:0   MisRate:0.00%    MPKI:0.00
PC:118fc     Total:428148      MisBP:0   MisRate:0.00%    MPKI:0.00
PC:101f8     Total:3      MisBP:0   MisRate:0.00%    MPKI:0.00
PC:11462     Total:2      MisBP:0   MisRate:0.00%    MPKI:0.00
PC:101f4     Total:6      MisBP:0   MisRate:0.00%    MPKI:0.00
PC:30a44     Total:3      MisBP:0   MisRate:0.00%    MPKI:0.00
PC:101f0     Total:3      MisBP:0   MisRate:0.00%    MPKI:0.00
PC:101ec     Total:3      MisBP:0   MisRate:0.00%    MPKI:0.00
PC:101e8     Total:3      MisBP:0   MisRate:0.00%    MPKI:0.00
PC:11452     Total:6      MisBP:0   MisRate:0.00%    MPKI:0.00
PC:101e4     Total:3      MisBP:0   MisRate:0.00%    MPKI:0.00
PC:1144e     Total:6      MisBP:0   MisRate:0.00%    MPKI:0.00
PC:101e0     Total:3      MisBP:0   MisRate:0.00%    MPKI:0.00
PC:1144a     Total:6      MisBP:0   MisRate:0.00%    MPKI:0.00
PC:101dc     Total:3      MisBP:0   MisRate:0.00%    MPKI:0.00
PC:11446     Total:6      MisBP:0   MisRate:0.00%    MPKI:0.00
PC:101d8     Total:3      MisBP:0   MisRate:0.00%    MPKI:0.00
PC:11442     Total:6      MisBP:0   MisRate:0.00%    MPKI:0.00
PC:101d4     Total:3      MisBP:0   MisRate:0.00%    MPKI:0.00
PC:1143e     Total:6      MisBP:0   MisRate:0.00%    MPKI:0.00
PC:194c8     Total:2      MisBP:0   MisRate:0.00%    MPKI:0.00
PC:194d4     Total:2      MisBP:0   MisRate:0.00%    MPKI:0.00
PC:10184     Total:16      MisBP:0   MisRate:0.00%    MPKI:0.00
PC:30a78     Total:3      MisBP:0   MisRate:0.00%    MPKI:0.00
PC:25254     Total:2      MisBP:0   MisRate:0.00%    MPKI:0.00
PC:1194a     Total:15      MisBP:0   MisRate:0.00%    MPKI:0.00
PC:194d0     Total:2      MisBP:0   MisRate:0.00%    MPKI:0.00
PC:10180     Total:4      MisBP:0   MisRate:0.00%    MPKI:0.00
PC:2f80a     Total:5      MisBP:0   MisRate:0.00%    MPKI:0.00
PC:25250     Total:2      MisBP:0   MisRate:0.00%    MPKI:0.00
PC:11946     Total:15      MisBP:0   MisRate:0.00%    MPKI:0.00
PC:194cc     Total:2      MisBP:0   MisRate:0.00%    MPKI:0.00
PC:1017c     Total:4      MisBP:0   MisRate:0.00%    MPKI:0.00
PC:2f806     Total:5      MisBP:0   MisRate:0.00%    MPKI:0.00
PC:11942     Total:16      MisBP:0   MisRate:0.00%    MPKI:0.00
PC:101d0     Total:3      MisBP:0   MisRate:0.00%    MPKI:0.00
PC:10178     Total:4      MisBP:0   MisRate:0.00%    MPKI:0.00
PC:2f802     Total:2      MisBP:0   MisRate:0.00%    MPKI:0.00
PC:30a6c     Total:3      MisBP:0   MisRate:0.00%    MPKI:0.00
PC:1193e     Total:19      MisBP:0   MisRate:0.00%    MPKI:0.00
PC:194c4     Total:2      MisBP:0   MisRate:0.00%    MPKI:0.00
PC:10174     Total:4      MisBP:0   MisRate:0.00%    MPKI:0.00
PC:2f7fe     Total:3      MisBP:0   MisRate:0.00%    MPKI:0.00
PC:1193a     Total:59      MisBP:0   MisRate:0.00%    MPKI:0.00
PC:2f7e2     Total:2      MisBP:0   MisRate:0.00%    MPKI:0.00
PC:30a4c     Total:2      MisBP:0   MisRate:0.00%    MPKI:0.00
PC:1191e     Total:5719      MisBP:0   MisRate:0.00%    MPKI:0.00
PC:2f7de     Total:2      MisBP:0   MisRate:0.00%    MPKI:0.00
PC:1191a     Total:683043      MisBP:0   MisRate:0.00%    MPKI:0.00
PC:2f7da     Total:2      MisBP:0   MisRate:0.00%    MPKI:0.00
PC:2f75e     Total:1      MisBP:0   MisRate:0.00%    MPKI:0.00
PC:3e56e     Total:6      MisBP:0   MisRate:0.00%    MPKI:0.00
PC:11748     Total:4443      MisBP:0   MisRate:0.00%    MPKI:0.00
PC:3e56c     Total:1      MisBP:0   MisRate:0.00%    MPKI:0.00
PC:11746     Total:71      MisBP:0   MisRate:0.00%    MPKI:0.00
PC:2f778     Total:2      MisBP:0   MisRate:0.00%    MPKI:0.00
PC:118b4     Total:689951      MisBP:0   MisRate:0.00%    MPKI:0.00
PC:2f770     Total:2      MisBP:0   MisRate:0.00%    MPKI:0.00
PC:118ac     Total:698406      MisBP:0   MisRate:0.00%    MPKI:0.00
PC:2f76a     Total:4      MisBP:0   MisRate:0.00%    MPKI:0.00
PC:2f768     Total:4      MisBP:0   MisRate:0.00%    MPKI:0.00
PC:118a4     Total:1005662      MisBP:0   MisRate:0.00%    MPKI:0.00
PC:2f766     Total:4      MisBP:0   MisRate:0.00%    MPKI:0.00
PC:2f762     Total:4      MisBP:0   MisRate:0.00%    MPKI:0.00
PC:1189e     Total:3377      MisBP:0   MisRate:0.00%    MPKI:0.00
PC:3e570     Total:1      MisBP:0   MisRate:0.00%    MPKI:0.00
PC:2f75a     Total:1      MisBP:0   MisRate:0.00%    MPKI:0.00
PC:11896     Total:3377      MisBP:0   MisRate:0.00%    MPKI:0.00
PC:2f758     Total:1      MisBP:0   MisRate:0.00%    MPKI:0.00
PC:11894     Total:3377      MisBP:0   MisRate:0.00%    MPKI:0.00
PC:2f74e     Total:1      MisBP:0   MisRate:0.00%    MPKI:0.00
PC:2f74a     Total:1      MisBP:0   MisRate:0.00%    MPKI:0.00
PC:2f742     Total:1      MisBP:0   MisRate:0.00%    MPKI:0.00
PC:318be     Total:1      MisBP:0   MisRate:0.00%    MPKI:0.00
PC:318bc     Total:1      MisBP:0   MisRate:0.00%    MPKI:0.00
PC:318ba     Total:1      MisBP:0   MisRate:0.00%    MPKI:0.00
PC:318b6     Total:1      MisBP:0   MisRate:0.00%    MPKI:0.00
PC:318b4     Total:1      MisBP:0   MisRate:0.00%    MPKI:0.00
PC:318b2     Total:1      MisBP:0   MisRate:0.00%    MPKI:0.00
PC:318ac     Total:2      MisBP:0   MisRate:0.00%    MPKI:0.00
PC:2f7a4     Total:3      MisBP:0   MisRate:0.00%    MPKI:0.00
PC:101cc     Total:15      MisBP:0   MisRate:0.00%    MPKI:0.00
PC:11436     Total:16625494      MisBP:0   MisRate:0.00%    MPKI:0.00
PC:101c8     Total:3      MisBP:0   MisRate:0.00%    MPKI:0.00
PC:11432     Total:16625646      MisBP:0   MisRate:0.00%    MPKI:0.00
PC:101c4     Total:12      MisBP:0   MisRate:0.00%    MPKI:0.00
PC:1142e     Total:16625482      MisBP:0   MisRate:0.00%    MPKI:0.00
PC:101c0     Total:3      MisBP:0   MisRate:0.00%    MPKI:0.00
PC:1142a     Total:16625023      MisBP:0   MisRate:0.00%    MPKI:0.00
PC:2f7ba     Total:4      MisBP:0   MisRate:0.00%    MPKI:0.00
PC:118f6     Total:429278      MisBP:0   MisRate:0.00%    MPKI:0.00
PC:2f7b4     Total:3      MisBP:0   MisRate:0.00%    MPKI:0.00
PC:118f0     Total:434741      MisBP:0   MisRate:0.00%    MPKI:0.00
PC:2f7ac     Total:3      MisBP:0   MisRate:0.00%    MPKI:0.00
PC:118e8     Total:4933      MisBP:0   MisRate:0.00%    MPKI:0.00
PC:1194e     Total:15      MisBP:0   MisRate:0.00%    MPKI:0.00
PC:2f7a0     Total:3      MisBP:0   MisRate:0.00%    MPKI:0.00
PC:118dc     Total:1229143      MisBP:0   MisRate:0.00%    MPKI:0.00
PC:3e57e     Total:1      MisBP:0   MisRate:0.00%    MPKI:0.00
PC:11758     Total:4508      MisBP:0   MisRate:0.00%    MPKI:0.00
PC:3e57c     Total:1      MisBP:0   MisRate:0.00%    MPKI:0.00
PC:3e57a     Total:1      MisBP:0   MisRate:0.00%    MPKI:0.00
PC:11754     Total:4508      MisBP:0   MisRate:0.00%    MPKI:0.00
PC:3e578     Total:1      MisBP:0   MisRate:0.00%    MPKI:0.00
PC:11752     Total:4508      MisBP:0   MisRate:0.00%    MPKI:0.00
PC:3e576     Total:1      MisBP:0   MisRate:0.00%    MPKI:0.00
PC:11750     Total:4513      MisBP:0   MisRate:0.00%    MPKI:0.00
PC:3e574     Total:1      MisBP:0   MisRate:0.00%    MPKI:0.00
PC:3e572     Total:1      MisBP:0   MisRate:0.00%    MPKI:0.00
PC:1174c     Total:4513      MisBP:0   MisRate:0.00%    MPKI:0.00
PC:543d6     Total:5      MisBP:0   MisRate:0.00%    MPKI:0.00
PC:18fd2     Total:2      MisBP:0   MisRate:0.00%    MPKI:0.00
PC:18fd0     Total:2      MisBP:0   MisRate:0.00%    MPKI:0.00
PC:18fce     Total:6      MisBP:0   MisRate:0.00%    MPKI:0.00
PC:18fcc     Total:1      MisBP:0   MisRate:0.00%    MPKI:0.00
PC:18fca     Total:1      MisBP:0   MisRate:0.00%    MPKI:0.00
PC:19588     Total:2      MisBP:0   MisRate:0.00%    MPKI:0.00
PC:19586     Total:2      MisBP:0   MisRate:0.00%    MPKI:0.00
PC:19582     Total:8      MisBP:0   MisRate:0.00%    MPKI:0.00
PC:19580     Total:2      MisBP:0   MisRate:0.00%    MPKI:0.00
PC:1957e     Total:2      MisBP:0   MisRate:0.00%    MPKI:0.00
PC:543ee     Total:3      MisBP:0   MisRate:0.00%    MPKI:0.00
PC:117ea     Total:1443      MisBP:0   MisRate:0.00%    MPKI:0.00
PC:543ea     Total:3      MisBP:0   MisRate:0.00%    MPKI:0.00
PC:117de     Total:10059      MisBP:0   MisRate:0.00%    MPKI:0.00
PC:18fd6     Total:7      MisBP:0   MisRate:0.00%    MPKI:0.00
PC:2f696     Total:1      MisBP:0   MisRate:0.00%    MPKI:0.00
PC:117d2     Total:10661      MisBP:0   MisRate:0.00%    MPKI:0.00
PC:543d2     Total:5      MisBP:0   MisRate:0.00%    MPKI:0.00
PC:2f692     Total:1      MisBP:0   MisRate:0.00%    MPKI:0.00
PC:194e8     Total:1      MisBP:0   MisRate:0.00%    MPKI:0.00
PC:10198     Total:4      MisBP:0   MisRate:0.00%    MPKI:0.00
PC:194c0     Total:2      MisBP:0   MisRate:0.00%    MPKI:0.00
PC:10170     Total:4      MisBP:0   MisRate:0.00%    MPKI:0.00
PC:194bc     Total:14      MisBP:0   MisRate:0.00%    MPKI:0.00
PC:1016c     Total:4      MisBP:0   MisRate:0.00%    MPKI:0.00
PC:1e958     Total:2      MisBP:0   MisRate:0.00%    MPKI:0.00
PC:2eb24     Total:9      MisBP:0   MisRate:0.00%    MPKI:0.00
PC:18d46     Total:6      MisBP:0   MisRate:0.00%    MPKI:0.00
PC:1e956     Total:2      MisBP:0   MisRate:0.00%    MPKI:0.00
PC:108e2     Total:1      MisBP:0   MisRate:0.00%    MPKI:0.00
PC:189e0     Total:9      MisBP:0   MisRate:0.00%    MPKI:0.00
PC:108fa     Total:2      MisBP:0   MisRate:0.00%    MPKI:0.00
PC:189dc     Total:9      MisBP:0   MisRate:0.00%    MPKI:0.00
PC:108f6     Total:2      MisBP:0   MisRate:0.00%    MPKI:0.00
PC:30c8a     Total:3      MisBP:0   MisRate:0.00%    MPKI:0.00
PC:108f2     Total:2      MisBP:0   MisRate:0.00%    MPKI:0.00
PC:11b5c     Total:1319759      MisBP:0   MisRate:0.00%    MPKI:0.00
PC:189d2     Total:7      MisBP:0   MisRate:0.00%    MPKI:0.00
PC:30c84     Total:3      MisBP:0   MisRate:0.00%    MPKI:0.00
PC:11b56     Total:3715871      MisBP:0   MisRate:0.00%    MPKI:0.00
PC:189ce     Total:7      MisBP:0   MisRate:0.00%    MPKI:0.00
PC:11b52     Total:3728212      MisBP:0   MisRate:0.00%    MPKI:0.00
PC:189c8     Total:2      MisBP:0   MisRate:0.00%    MPKI:0.00
PC:30c7a     Total:3      MisBP:0   MisRate:0.00%    MPKI:0.00
PC:2eb22     Total:9      MisBP:0   MisRate:0.00%    MPKI:0.00
PC:189c4     Total:2      MisBP:0   MisRate:0.00%    MPKI:0.00
PC:30c76     Total:3      MisBP:0   MisRate:0.00%    MPKI:0.00
PC:108de     Total:1      MisBP:0   MisRate:0.00%    MPKI:0.00
PC:189bc     Total:14      MisBP:0   MisRate:0.00%    MPKI:0.00
PC:108d6     Total:1      MisBP:0   MisRate:0.00%    MPKI:0.00
PC:11b40     Total:1233786      MisBP:0   MisRate:0.00%    MPKI:0.00
PC:180b0     Total:1      MisBP:0   MisRate:0.00%    MPKI:0.00
PC:180a2     Total:1      MisBP:0   MisRate:0.00%    MPKI:0.00
PC:18056     Total:1      MisBP:0   MisRate:0.00%    MPKI:0.00
PC:18046     Total:2      MisBP:0   MisRate:0.00%    MPKI:0.00
PC:18042     Total:2      MisBP:0   MisRate:0.00%    MPKI:0.00
PC:18fde     Total:21      MisBP:0   MisRate:0.00%    MPKI:0.00
PC:18fda     Total:7      MisBP:0   MisRate:0.00%    MPKI:0.00
PC:18fd8     Total:7      MisBP:0   MisRate:0.00%    MPKI:0.00
PC:1196a     Total:9      MisBP:0   MisRate:0.00%    MPKI:0.00
PC:101ac     Total:4      MisBP:0   MisRate:0.00%    MPKI:0.00
PC:2f836     Total:1      MisBP:0   MisRate:0.00%    MPKI:0.00
PC:2e5cc     Total:2      MisBP:0   MisRate:0.00%    MPKI:0.00
PC:194f8     Total:1      MisBP:0   MisRate:0.00%    MPKI:0.00
PC:101a8     Total:4      MisBP:0   MisRate:0.00%    MPKI:0.00
PC:2f832     Total:1      MisBP:0   MisRate:0.00%    MPKI:0.00
PC:2e5c8     Total:2      MisBP:0   MisRate:0.00%    MPKI:0.00
PC:1196e     Total:11      MisBP:0   MisRate:0.00%    MPKI:0.00
PC:194f4     Total:1      MisBP:0   MisRate:0.00%    MPKI:0.00
PC:101a4     Total:8      MisBP:0   MisRate:0.00%    MPKI:0.00
PC:3053c     Total:1      MisBP:0   MisRate:0.00%    MPKI:0.00
PC:2f82e     Total:1      MisBP:0   MisRate:0.00%    MPKI:0.00
PC:2e5c4     Total:2      MisBP:0   MisRate:0.00%    MPKI:0.00
PC:30a98     Total:1      MisBP:0   MisRate:0.00%    MPKI:0.00
PC:317ae     Total:1      MisBP:0   MisRate:0.00%    MPKI:0.00
PC:194f0     Total:1      MisBP:0   MisRate:0.00%    MPKI:0.00
PC:101a0     Total:4      MisBP:0   MisRate:0.00%    MPKI:0.00
PC:30538     Total:1      MisBP:0   MisRate:0.00%    MPKI:0.00
PC:2f82a     Total:1      MisBP:0   MisRate:0.00%    MPKI:0.00
PC:11966     Total:9      MisBP:0   MisRate:0.00%    MPKI:0.00
PC:194dc     Total:1      MisBP:0   MisRate:0.00%    MPKI:0.00
PC:1018c     Total:4      MisBP:0   MisRate:0.00%    MPKI:0.00
PC:2f816     Total:1      MisBP:0   MisRate:0.00%    MPKI:0.00
PC:30a80     Total:3      MisBP:0   MisRate:0.00%    MPKI:0.00
PC:2525c     Total:2      MisBP:0   MisRate:0.00%    MPKI:0.00
PC:11952     Total:9      MisBP:0   MisRate:0.00%    MPKI:0.00
PC:194d8     Total:1      MisBP:0   MisRate:0.00%    MPKI:0.00
PC:10188     Total:4      MisBP:0   MisRate:0.00%    MPKI:0.00
PC:2f812     Total:3      MisBP:0   MisRate:0.00%    MPKI:0.00
PC:2f1b6     Total:1      MisBP:0   MisRate:0.00%    MPKI:0.00
PC:1e954     Total:2      MisBP:0   MisRate:0.00%    MPKI:0.00
PC:2eb20     Total:9      MisBP:0   MisRate:0.00%    MPKI:0.00
PC:18d42     Total:6      MisBP:0   MisRate:0.00%    MPKI:0.00
PC:1e94c     Total:4      MisBP:0   MisRate:0.00%    MPKI:0.00
PC:18d3a     Total:6      MisBP:0   MisRate:0.00%    MPKI:0.00
PC:2eb18     Total:11      MisBP:0   MisRate:0.00%    MPKI:0.00
PC:1e948     Total:2      MisBP:0   MisRate:0.00%    MPKI:0.00
PC:2eb14     Total:11      MisBP:0   MisRate:0.00%    MPKI:0.00
PC:18e32     Total:5      MisBP:0   MisRate:0.00%    MPKI:0.00
PC:2ec10     Total:1      MisBP:0   MisRate:0.00%    MPKI:0.00
PC:18e2e     Total:3      MisBP:0   MisRate:0.00%    MPKI:0.00
PC:2f1be     Total:1      MisBP:0   MisRate:0.00%    MPKI:0.00
PC:2f1bc     Total:1      MisBP:0   MisRate:0.00%    MPKI:0.00
PC:2f1b8     Total:1      MisBP:0   MisRate:0.00%    MPKI:0.00
PC:318aa     Total:2      MisBP:0   MisRate:0.00%    MPKI:0.00
PC:2f1b2     Total:1      MisBP:0   MisRate:0.00%    MPKI:0.00
PC:2f1b0     Total:1      MisBP:0   MisRate:0.00%    MPKI:0.00
PC:112ec     Total:1      MisBP:0   MisRate:0.00%    MPKI:0.00
PC:2f1ac     Total:1      MisBP:0   MisRate:0.00%    MPKI:0.00
PC:2f1aa     Total:1      MisBP:0   MisRate:0.00%    MPKI:0.00
PC:2f1a6     Total:1      MisBP:0   MisRate:0.00%    MPKI:0.00
PC:2f1a4     Total:1      MisBP:0   MisRate:0.00%    MPKI:0.00
PC:2f1a0     Total:3      MisBP:0   MisRate:0.00%    MPKI:0.00
PC:2f19c     Total:3      MisBP:0   MisRate:0.00%    MPKI:0.00
PC:2f198     Total:3      MisBP:0   MisRate:0.00%    MPKI:0.00
PC:2f194     Total:3      MisBP:0   MisRate:0.00%    MPKI:0.00
PC:2f192     Total:3      MisBP:0   MisRate:0.00%    MPKI:0.00
PC:2f18e     Total:3      MisBP:0   MisRate:0.00%    MPKI:0.00
PC:194fc     Total:5      MisBP:0   MisRate:0.00%    MPKI:0.00
PC:2f76e     Total:2      MisBP:0   MisRate:0.00%    MPKI:0.00
PC:2f77c     Total:2      MisBP:0   MisRate:0.00%    MPKI:0.00
PC:118b8     Total:673149      MisBP:0   MisRate:0.00%    MPKI:0.00
PC:2e628     Total:34      MisBP:0   MisRate:0.00%    MPKI:0.00
PC:119ce     Total:3447      MisBP:0   MisRate:0.00%    MPKI:0.00
PC:2e626     Total:34      MisBP:0   MisRate:0.00%    MPKI:0.00
PC:119cc     Total:3447      MisBP:0   MisRate:0.00%    MPKI:0.00
PC:2f776     Total:2      MisBP:0   MisRate:0.00%    MPKI:0.00
PC:118b2     Total:697658      MisBP:0   MisRate:0.00%    MPKI:0.00
PC:2e622     Total:34      MisBP:0   MisRate:0.00%    MPKI:0.00
PC:119c8     Total:3447      MisBP:0   MisRate:0.00%    MPKI:0.00
PC:2f772     Total:2      MisBP:0   MisRate:0.00%    MPKI:0.00
PC:118ae     Total:697862      MisBP:0   MisRate:0.00%    MPKI:0.00
PC:2e61e     Total:2      MisBP:0   MisRate:0.00%    MPKI:0.00
PC:119c4     Total:3448      MisBP:0   MisRate:0.00%    MPKI:0.00
PC:119d0     Total:3447      MisBP:0   MisRate:0.00%    MPKI:0.00
PC:118aa     Total:699455      MisBP:0   MisRate:0.00%    MPKI:0.00
PC:2e61a     Total:2      MisBP:0   MisRate:0.00%    MPKI:0.00
PC:119c0     Total:3448      MisBP:0   MisRate:0.00%    MPKI:0.00
PC:2f746     Total:1      MisBP:0   MisRate:0.00%    MPKI:0.00
PC:2e5f2     Total:1      MisBP:0   MisRate:0.00%    MPKI:0.00
PC:11998     Total:3880      MisBP:0   MisRate:0.00%    MPKI:0.00
PC:2e5e6     Total:1      MisBP:0   MisRate:0.00%    MPKI:0.00
PC:2f732     Total:3      MisBP:0   MisRate:0.00%    MPKI:0.00
PC:2e5de     Total:1      MisBP:0   MisRate:0.00%    MPKI:0.00
PC:11984     Total:1      MisBP:0   MisRate:0.00%    MPKI:0.00
PC:2f72e     Total:3      MisBP:0   MisRate:0.00%    MPKI:0.00
PC:1186a     Total:345824      MisBP:0   MisRate:0.00%    MPKI:0.00
PC:2e5da     Total:1      MisBP:0   MisRate:0.00%    MPKI:0.00
PC:11980     Total:1      MisBP:0   MisRate:0.00%    MPKI:0.00
PC:3068e     Total:9      MisBP:0   MisRate:0.00%    MPKI:0.00
PC:2f674     Total:2      MisBP:0   MisRate:0.00%    MPKI:0.00
PC:117b0     Total:11258      MisBP:0   MisRate:0.00%    MPKI:0.00
PC:2f670     Total:2      MisBP:0   MisRate:0.00%    MPKI:0.00
PC:117ac     Total:11343      MisBP:0   MisRate:0.00%    MPKI:0.00
PC:2f66c     Total:2      MisBP:0   MisRate:0.00%    MPKI:0.00
PC:2f66a     Total:2      MisBP:0   MisRate:0.00%    MPKI:0.00
PC:117a6     Total:10274      MisBP:0   MisRate:0.00%    MPKI:0.00
PC:306bc     Total:1      MisBP:0   MisRate:0.00%    MPKI:0.00
PC:3180c     Total:1      MisBP:0   MisRate:0.00%    MPKI:0.00
PC:11474     Total:2      MisBP:0   MisRate:0.00%    MPKI:0.00
PC:306b8     Total:1      MisBP:0   MisRate:0.00%    MPKI:0.00
PC:306b4     Total:1      MisBP:0   MisRate:0.00%    MPKI:0.00
PC:180b4     Total:1      MisBP:0   MisRate:0.00%    MPKI:0.00
PC:30696     Total:8      MisBP:0   MisRate:0.00%    MPKI:0.00
PC:2e5d4     Total:1      MisBP:0   MisRate:0.00%    MPKI:0.00
PC:30688     Total:9      MisBP:0   MisRate:0.00%    MPKI:0.00
PC:2e63e     Total:49      MisBP:0   MisRate:0.00%    MPKI:0.00
PC:2e63c     Total:10      MisBP:0   MisRate:0.00%    MPKI:0.00
PC:119e2     Total:4675      MisBP:0   MisRate:0.00%    MPKI:0.00
PC:119e0     Total:4675      MisBP:0   MisRate:0.00%    MPKI:0.00
PC:2e638     Total:33      MisBP:0   MisRate:0.00%    MPKI:0.00
PC:2e634     Total:67      MisBP:0   MisRate:0.00%    MPKI:0.00
PC:119da     Total:3417      MisBP:0   MisRate:0.00%    MPKI:0.00
PC:2e632     Total:34      MisBP:0   MisRate:0.00%    MPKI:0.00
PC:119d8     Total:3417      MisBP:0   MisRate:0.00%    MPKI:0.00
PC:2e630     Total:34      MisBP:0   MisRate:0.00%    MPKI:0.00
PC:119d6     Total:3417      MisBP:0   MisRate:0.00%    MPKI:0.00
PC:2e62e     Total:34      MisBP:0   MisRate:0.00%    MPKI:0.00
PC:2e62a     Total:34      MisBP:0   MisRate:0.00%    MPKI:0.00
PC:30676     Total:10      MisBP:0   MisRate:0.00%    MPKI:0.00
PC:2e5b2     Total:2      MisBP:0   MisRate:0.00%    MPKI:0.00
PC:30a86     Total:4      MisBP:0   MisRate:0.00%    MPKI:0.00
PC:2f81c     Total:1      MisBP:0   MisRate:0.00%    MPKI:0.00
PC:25262     Total:2      MisBP:0   MisRate:0.00%    MPKI:0.00
PC:11958     Total:9      MisBP:0   MisRate:0.00%    MPKI:0.00
PC:2f704     Total:2      MisBP:0   MisRate:0.00%    MPKI:0.00
PC:11840     Total:6      MisBP:0   MisRate:0.00%    MPKI:0.00
PC:2e5b0     Total:14      MisBP:0   MisRate:0.00%    MPKI:0.00
PC:2f81a     Total:1      MisBP:0   MisRate:0.00%    MPKI:0.00
PC:25260     Total:2      MisBP:0   MisRate:0.00%    MPKI:0.00
PC:11956     Total:9      MisBP:0   MisRate:0.00%    MPKI:0.00
PC:18098     Total:2      MisBP:0   MisRate:0.00%    MPKI:0.00
PC:3067a     Total:10      MisBP:0   MisRate:0.00%    MPKI:0.00
PC:18094     Total:35      MisBP:0   MisRate:0.00%    MPKI:0.00
PC:11842     Total:6      MisBP:0   MisRate:0.00%    MPKI:0.00
PC:1808c     Total:5      MisBP:0   MisRate:0.00%    MPKI:0.00
PC:3066e     Total:2      MisBP:0   MisRate:0.00%    MPKI:0.00
PC:18084     Total:6      MisBP:0   MisRate:0.00%    MPKI:0.00
PC:317ba     Total:1      MisBP:0   MisRate:0.00%    MPKI:0.00
PC:11422     Total:16625256      MisBP:0   MisRate:0.00%    MPKI:0.00
PC:101b8     Total:28      MisBP:0   MisRate:0.00%    MPKI:0.00
PC:30666     Total:2      MisBP:0   MisRate:0.00%    MPKI:0.00
PC:30a66     Total:4      MisBP:0   MisRate:0.00%    MPKI:0.00
PC:2f7fc     Total:3      MisBP:0   MisRate:0.00%    MPKI:0.00
PC:11938     Total:20      MisBP:0   MisRate:0.00%    MPKI:0.00
PC:30a62     Total:4      MisBP:0   MisRate:0.00%    MPKI:0.00
PC:2f7f8     Total:3      MisBP:0   MisRate:0.00%    MPKI:0.00
PC:11934     Total:2      MisBP:0   MisRate:0.00%    MPKI:0.00
PC:5462e     Total:8      MisBP:0   MisRate:0.00%    MPKI:0.00
PC:2f71c     Total:3      MisBP:0   MisRate:0.00%    MPKI:0.00
PC:2f724     Total:3      MisBP:0   MisRate:0.00%    MPKI:0.00
PC:30aa4     Total:1      MisBP:0   MisRate:0.00%    MPKI:0.00
PC:2f722     Total:3      MisBP:0   MisRate:0.00%    MPKI:0.00
PC:1185e     Total:7337      MisBP:0   MisRate:0.00%    MPKI:0.00
PC:2e5ce     Total:2      MisBP:0   MisRate:0.00%    MPKI:0.00
PC:30aa2     Total:1      MisBP:0   MisRate:0.00%    MPKI:0.00
PC:2f838     Total:1      MisBP:0   MisRate:0.00%    MPKI:0.00
PC:11974     Total:1      MisBP:0   MisRate:0.00%    MPKI:0.00
PC:2f720     Total:3      MisBP:0   MisRate:0.00%    MPKI:0.00
PC:1185a     Total:31      MisBP:0   MisRate:0.00%    MPKI:0.00
PC:2e5ca     Total:2      MisBP:0   MisRate:0.00%    MPKI:0.00
PC:2f834     Total:1      MisBP:0   MisRate:0.00%    MPKI:0.00
PC:30a9e     Total:1      MisBP:0   MisRate:0.00%    MPKI:0.00
PC:11970     Total:3      MisBP:0   MisRate:0.00%    MPKI:0.00
PC:117b2     Total:11224      MisBP:0   MisRate:0.00%    MPKI:0.00
PC:11858     Total:5      MisBP:0   MisRate:0.00%    MPKI:0.00
PC:11856     Total:5      MisBP:0   MisRate:0.00%    MPKI:0.00
PC:2e5c6     Total:2      MisBP:0   MisRate:0.00%    MPKI:0.00
PC:30a9a     Total:1      MisBP:0   MisRate:0.00%    MPKI:0.00
PC:1196c     Total:8      MisBP:0   MisRate:0.00%    MPKI:0.00
PC:2f718     Total:5      MisBP:0   MisRate:0.00%    MPKI:0.00
PC:11854     Total:5      MisBP:0   MisRate:0.00%    MPKI:0.00
PC:2f70a     Total:3      MisBP:0   MisRate:0.00%    MPKI:0.00
PC:11846     Total:6      MisBP:0   MisRate:0.00%    MPKI:0.00
PC:2e5b6     Total:2      MisBP:0   MisRate:0.00%    MPKI:0.00
PC:2f820     Total:1      MisBP:0   MisRate:0.00%    MPKI:0.00
PC:25266     Total:2      MisBP:0   MisRate:0.00%    MPKI:0.00
PC:1195c     Total:9      MisBP:0   MisRate:0.00%    MPKI:0.00
PC:2f706     Total:3      MisBP:0   MisRate:0.00%    MPKI:0.00
PC:54422     Total:1      MisBP:0   MisRate:0.00%    MPKI:0.00
PC:54434     Total:1      MisBP:0   MisRate:0.00%    MPKI:0.00
PC:11830     Total:4      MisBP:0   MisRate:0.00%    MPKI:0.00
PC:1182c     Total:4      MisBP:0   MisRate:0.00%    MPKI:0.00
PC:2f6ee     Total:5      MisBP:0   MisRate:0.00%    MPKI:0.00
PC:5442e     Total:1      MisBP:0   MisRate:0.00%    MPKI:0.00
PC:1182a     Total:4      MisBP:0   MisRate:0.00%    MPKI:0.00
PC:2f6ec     Total:5      MisBP:0   MisRate:0.00%    MPKI:0.00
PC:5442c     Total:1      MisBP:0   MisRate:0.00%    MPKI:0.00
PC:11828     Total:4      MisBP:0   MisRate:0.00%    MPKI:0.00
PC:54428     Total:1      MisBP:0   MisRate:0.00%    MPKI:0.00
PC:11824     Total:4      MisBP:0   MisRate:0.00%    MPKI:0.00
PC:2f6e6     Total:4      MisBP:0   MisRate:0.00%    MPKI:0.00
PC:11822     Total:5      MisBP:0   MisRate:0.00%    MPKI:0.00
PC:2f6e2     Total:4      MisBP:0   MisRate:0.00%    MPKI:0.00
PC:2f6f4     Total:5      MisBP:0   MisRate:0.00%    MPKI:0.00
PC:2f6e0     Total:4      MisBP:0   MisRate:0.00%    MPKI:0.00
PC:1181c     Total:50      MisBP:0   MisRate:0.00%    MPKI:0.00
PC:2f6de     Total:4      MisBP:0   MisRate:0.00%    MPKI:0.00
PC:5441e     Total:1      MisBP:0   MisRate:0.00%    MPKI:0.00
PC:2f6dc     Total:4      MisBP:0   MisRate:0.00%    MPKI:0.00
PC:5441c     Total:1      MisBP:0   MisRate:0.00%    MPKI:0.00
PC:11818     Total:8062      MisBP:0   MisRate:0.00%    MPKI:0.00
PC:2f6da     Total:4      MisBP:0   MisRate:0.00%    MPKI:0.00
PC:11816     Total:8065      MisBP:0   MisRate:0.00%    MPKI:0.00
PC:2f6d8     Total:4      MisBP:0   MisRate:0.00%    MPKI:0.00
PC:54418     Total:1      MisBP:0   MisRate:0.00%    MPKI:0.00
PC:2f6d6     Total:4      MisBP:0   MisRate:0.00%    MPKI:0.00
PC:11812     Total:8064      MisBP:0   MisRate:0.00%    MPKI:0.00
PC:543fc     Total:3      MisBP:0   MisRate:0.00%    MPKI:0.00
PC:101bc     Total:4      MisBP:0   MisRate:0.00%    MPKI:0.00
PC:2f73e     Total:3      MisBP:0   MisRate:0.00%    MPKI:0.00
PC:1187a     Total:499637      MisBP:0   MisRate:0.00%    MPKI:0.00
PC:2f714     Total:5      MisBP:0   MisRate:0.00%    MPKI:0.00
PC:11850     Total:5      MisBP:0   MisRate:0.00%    MPKI:0.00
PC:2f70c     Total:3      MisBP:0   MisRate:0.00%    MPKI:0.00
PC:11848     Total:6      MisBP:0   MisRate:0.00%    MPKI:0.00
PC:2f702     Total:2      MisBP:0   MisRate:0.00%    MPKI:0.00
PC:2f700     Total:2      MisBP:0   MisRate:0.00%    MPKI:0.00
PC:1183c     Total:48      MisBP:0   MisRate:0.00%    MPKI:0.00
PC:31826     Total:1      MisBP:0   MisRate:0.00%    MPKI:0.00
PC:3181e     Total:1      MisBP:0   MisRate:0.00%    MPKI:0.00
PC:18088     Total:6      MisBP:0   MisRate:0.00%    MPKI:0.00
PC:317be     Total:1      MisBP:0   MisRate:0.00%    MPKI:0.00
PC:11426     Total:16625089      MisBP:0   MisRate:0.00%    MPKI:0.00
PC:2f6bc     Total:1      MisBP:0   MisRate:0.00%    MPKI:0.00
PC:18080     Total:6      MisBP:0   MisRate:0.00%    MPKI:0.00
PC:317b6     Total:1      MisBP:0   MisRate:0.00%    MPKI:0.00
PC:101b4     Total:4      MisBP:0   MisRate:0.00%    MPKI:0.00
PC:1807c     Total:7      MisBP:0   MisRate:0.00%    MPKI:0.00
PC:317b2     Total:1      MisBP:0   MisRate:0.00%    MPKI:0.00
PC:101b0     Total:4      MisBP:0   MisRate:0.00%    MPKI:0.00
PC:18078     Total:7      MisBP:0   MisRate:0.00%    MPKI:0.00
PC:2f6fe     Total:5      MisBP:0   MisRate:0.00%    MPKI:0.00
PC:11836     Total:4      MisBP:0   MisRate:0.00%    MPKI:0.00
PC:2f6f8     Total:5      MisBP:0   MisRate:0.00%    MPKI:0.00
PC:54438     Total:1      MisBP:0   MisRate:0.00%    MPKI:0.00
PC:11834     Total:4      MisBP:0   MisRate:0.00%    MPKI:0.00
PC:2f6f6     Total:5      MisBP:0   MisRate:0.00%    MPKI:0.00
PC:11832     Total:4      MisBP:0   MisRate:0.00%    MPKI:0.00
PC:117e8     Total:1481      MisBP:0   MisRate:0.00%    MPKI:0.00
PC:2f6a0     Total:1      MisBP:0   MisRate:0.00%    MPKI:0.00
PC:117dc     Total:10050      MisBP:0   MisRate:0.00%    MPKI:0.00
PC:2f69c     Total:1      MisBP:0   MisRate:0.00%    MPKI:0.00
PC:117d8     Total:10068      MisBP:0   MisRate:0.00%    MPKI:0.00
PC:2f6b4     Total:1      MisBP:0   MisRate:0.00%    MPKI:0.00
PC:117f0     Total:1426      MisBP:0   MisRate:0.00%    MPKI:0.00
PC:543da     Total:5      MisBP:0   MisRate:0.00%    MPKI:0.00
PC:2f69a     Total:1      MisBP:0   MisRate:0.00%    MPKI:0.00
PC:117d6     Total:10075      MisBP:0   MisRate:0.00%    MPKI:0.00
PC:2f6b0     Total:1      MisBP:0   MisRate:0.00%    MPKI:0.00
PC:117ec     Total:1437      MisBP:0   MisRate:0.00%    MPKI:0.00
PC:543d4     Total:5      MisBP:0   MisRate:0.00%    MPKI:0.00
PC:117d0     Total:10672      MisBP:0   MisRate:0.00%    MPKI:0.00
PC:2f6ac     Total:1      MisBP:0   MisRate:0.00%    MPKI:0.00
PC:543e0     Total:3      MisBP:0   MisRate:0.00%    MPKI:0.00
PC:2f68e     Total:1      MisBP:0   MisRate:0.00%    MPKI:0.00
PC:2f68a     Total:1      MisBP:0   MisRate:0.00%    MPKI:0.00
PC:117c6     Total:10699      MisBP:0   MisRate:0.00%    MPKI:0.00
PC:2f686     Total:1      MisBP:0   MisRate:0.00%    MPKI:0.00
PC:117c2     Total:10697      MisBP:0   MisRate:0.00%    MPKI:0.00
PC:117be     Total:11171      MisBP:0   MisRate:0.00%    MPKI:0.00
PC:2f680     Total:2      MisBP:0   MisRate:0.00%    MPKI:0.00
PC:117bc     Total:11183      MisBP:0   MisRate:0.00%    MPKI:0.00
PC:2f67c     Total:2      MisBP:0   MisRate:0.00%    MPKI:0.00
PC:117b8     Total:11214      MisBP:0   MisRate:0.00%    MPKI:0.00
PC:2f67a     Total:2      MisBP:0   MisRate:0.00%    MPKI:0.00
PC:2f678     Total:2      MisBP:0   MisRate:0.00%    MPKI:0.00
PC:117b4     Total:11220      MisBP:0   MisRate:0.00%    MPKI:0.00
PC:2f676     Total:2      MisBP:0   MisRate:0.00%    MPKI:0.00
PC:1180a     Total:8086      MisBP:0   MisRate:0.00%    MPKI:0.00
PC:117f8     Total:7235      MisBP:0   MisRate:0.00%    MPKI:0.00
PC:2f6d4     Total:4      MisBP:0   MisRate:0.00%    MPKI:0.00
PC:54414     Total:1      MisBP:0   MisRate:0.00%    MPKI:0.00
PC:11810     Total:8064      MisBP:0   MisRate:0.00%    MPKI:0.00
PC:2f6d2     Total:1      MisBP:0   MisRate:0.00%    MPKI:0.00
PC:54412     Total:1      MisBP:0   MisRate:0.00%    MPKI:0.00
PC:1180e     Total:8068      MisBP:0   MisRate:0.00%    MPKI:0.00
PC:543f8     Total:3      MisBP:0   MisRate:0.00%    MPKI:0.00
PC:2f6b8     Total:1      MisBP:0   MisRate:0.00%    MPKI:0.00
PC:1180c     Total:8075      MisBP:0   MisRate:0.00%    MPKI:0.00
PC:543f6     Total:3      MisBP:0   MisRate:0.00%    MPKI:0.00
PC:117f2     Total:8494      MisBP:0   MisRate:0.00%    MPKI:0.00
PC:2f6ce     Total:1      MisBP:0   MisRate:0.00%    MPKI:0.00
PC:5440e     Total:1      MisBP:0   MisRate:0.00%    MPKI:0.00
PC:19596     Total:1      MisBP:0   MisRate:0.00%    MPKI:0.00
PC:5440c     Total:1      MisBP:0   MisRate:0.00%    MPKI:0.00
PC:11808     Total:3053      MisBP:0   MisRate:0.00%    MPKI:0.00
PC:543f2     Total:3      MisBP:0   MisRate:0.00%    MPKI:0.00
PC:2f6b2     Total:1      MisBP:0   MisRate:0.00%    MPKI:0.00
PC:117ee     Total:1428      MisBP:0   MisRate:0.00%    MPKI:0.00
PC:2f6ca     Total:3      MisBP:0   MisRate:0.00%    MPKI:0.00
PC:30a6a     Total:3      MisBP:0   MisRate:0.00%    MPKI:0.00
PC:2f800     Total:2      MisBP:0   MisRate:0.00%    MPKI:0.00
PC:1193c     Total:19      MisBP:0   MisRate:0.00%    MPKI:0.00
PC:543e6     Total:3      MisBP:0   MisRate:0.00%    MPKI:0.00
PC:2f6a6     Total:1      MisBP:0   MisRate:0.00%    MPKI:0.00
PC:117e2     Total:10053      MisBP:0   MisRate:0.00%    MPKI:0.00
PC:2f6be     Total:1      MisBP:0   MisRate:0.00%    MPKI:0.00
PC:117fa     Total:9733      MisBP:0   MisRate:0.00%    MPKI:0.00
PC:11d34     Total:1      MisBP:0   MisRate:0.00%    MPKI:0.00
PC:11d0a     Total:185      MisBP:0   MisRate:0.00%    MPKI:0.00
PC:11d0e     Total:185      MisBP:0   MisRate:0.00%    MPKI:0.00
PC:11d10     Total:185      MisBP:0   MisRate:0.00%    MPKI:0.00
PC:11d14     Total:185      MisBP:0   MisRate:0.00%    MPKI:0.00
PC:11d18     Total:184      MisBP:0   MisRate:0.00%    MPKI:0.00
PC:11d1a     Total:183      MisBP:0   MisRate:0.00%    MPKI:0.00
PC:11d1c     Total:183      MisBP:0   MisRate:0.00%    MPKI:0.00
PC:11d20     Total:183      MisBP:0   MisRate:0.00%    MPKI:0.00
PC:11d24     Total:183      MisBP:0   MisRate:0.00%    MPKI:0.00
PC:11d26     Total:183      MisBP:0   MisRate:0.00%    MPKI:0.00
PC:11d2a     Total:183      MisBP:0   MisRate:0.00%    MPKI:0.00
PC:11d2e     Total:183      MisBP:0   MisRate:0.00%    MPKI:0.00
PC:11d30     Total:1      MisBP:0   MisRate:0.00%    MPKI:0.00
PC:11d32     Total:1      MisBP:0   MisRate:0.00%    MPKI:0.00
PC:11d08     Total:185      MisBP:0   MisRate:0.00%    MPKI:0.00
PC:11d36     Total:1      MisBP:0   MisRate:0.00%    MPKI:0.00
PC:11d38     Total:1      MisBP:0   MisRate:0.00%    MPKI:0.00
PC:11d3a     Total:1      MisBP:0   MisRate:0.00%    MPKI:0.00
PC:11d3c     Total:1      MisBP:0   MisRate:0.00%    MPKI:0.00
PC:11c26     Total:4053      MisBP:0   MisRate:0.00%    MPKI:0.00
PC:11c2a     Total:4052      MisBP:0   MisRate:0.00%    MPKI:0.00
PC:11c2e     Total:4052      MisBP:0   MisRate:0.00%    MPKI:0.00
PC:11c30     Total:4064      MisBP:0   MisRate:0.00%    MPKI:0.00
PC:11c34     Total:4064      MisBP:0   MisRate:0.00%    MPKI:0.00
PC:11c38     Total:13      MisBP:0   MisRate:0.00%    MPKI:0.00
PC:11c3a     Total:807971      MisBP:0   MisRate:0.00%    MPKI:0.00
PC:11c3e     Total:807246      MisBP:0   MisRate:0.00%    MPKI:0.00
PC:11c96     Total:12126      MisBP:0   MisRate:0.00%    MPKI:0.00
PC:10a2c     Total:684808      MisBP:0   MisRate:0.00%    MPKI:0.00
PC:11cde     Total:200      MisBP:0   MisRate:0.00%    MPKI:0.00
PC:11bce     Total:171848      MisBP:0   MisRate:0.00%    MPKI:0.00
PC:11bd2     Total:343293      MisBP:0   MisRate:0.00%    MPKI:0.00
PC:11bd6     Total:171533      MisBP:0   MisRate:0.00%    MPKI:0.00
PC:11bda     Total:171470      MisBP:0   MisRate:0.00%    MPKI:0.00
PC:11bde     Total:171338      MisBP:0   MisRate:0.00%    MPKI:0.00
PC:11be2     Total:171271      MisBP:0   MisRate:0.00%    MPKI:0.00
PC:11bea     Total:169033      MisBP:0   MisRate:0.00%    MPKI:0.00
PC:11bec     Total:169025      MisBP:0   MisRate:0.00%    MPKI:0.00
PC:11bee     Total:168966      MisBP:0   MisRate:0.00%    MPKI:0.00
PC:11bf0     Total:168950      MisBP:0   MisRate:0.00%    MPKI:0.00
PC:11bf2     Total:168883      MisBP:0   MisRate:0.00%    MPKI:0.00
PC:11bf6     Total:168873      MisBP:0   MisRate:0.00%    MPKI:0.00
PC:11bfa     Total:168805      MisBP:0   MisRate:0.00%    MPKI:0.00
PC:11bfc     Total:168795      MisBP:0   MisRate:0.00%    MPKI:0.00
PC:11c9a     Total:12122      MisBP:0   MisRate:0.00%    MPKI:0.00
PC:10a74     Total:1      MisBP:0   MisRate:0.00%    MPKI:0.00
PC:11ce0     Total:200      MisBP:0   MisRate:0.00%    MPKI:0.00
PC:10a76     Total:1      MisBP:0   MisRate:0.00%    MPKI:0.00
PC:11ce4     Total:200      MisBP:0   MisRate:0.00%    MPKI:0.00
PC:11ce6     Total:200      MisBP:0   MisRate:0.00%    MPKI:0.00
PC:10a7c     Total:1      MisBP:0   MisRate:0.00%    MPKI:0.00
PC:11cea     Total:1793      MisBP:0   MisRate:0.00%    MPKI:0.00
PC:11cee     Total:889      MisBP:0   MisRate:0.00%    MPKI:0.00
PC:11cf0     Total:888      MisBP:0   MisRate:0.00%    MPKI:0.00
PC:11cf6     Total:179      MisBP:0   MisRate:0.00%    MPKI:0.00
PC:11cfa     Total:179      MisBP:0   MisRate:0.00%    MPKI:0.00
PC:11cfc     Total:179      MisBP:0   MisRate:0.00%    MPKI:0.00
PC:11d00     Total:178      MisBP:0   MisRate:0.00%    MPKI:0.00
PC:11d04     Total:177      MisBP:0   MisRate:0.00%    MPKI:0.00
PC:11c60     Total:2548915      MisBP:0   MisRate:0.00%    MPKI:0.00
PC:11ccc     Total:4135      MisBP:0   MisRate:0.00%    MPKI:0.00
PC:10a62     Total:1      MisBP:0   MisRate:0.00%    MPKI:0.00
PC:10a64     Total:1      MisBP:0   MisRate:0.00%    MPKI:0.00
PC:11c4e     Total:2636106      MisBP:0   MisRate:0.00%    MPKI:0.00
PC:11c52     Total:2622519      MisBP:0   MisRate:0.00%    MPKI:0.00
PC:109ec     Total:18      MisBP:0   MisRate:0.00%    MPKI:0.00
PC:11c58     Total:2577961      MisBP:0   MisRate:0.00%    MPKI:0.00
PC:109ee     Total:18      MisBP:0   MisRate:0.00%    MPKI:0.00
PC:11c5a     Total:2571623      MisBP:0   MisRate:0.00%    MPKI:0.00
PC:109f0     Total:18      MisBP:0   MisRate:0.00%    MPKI:0.00
PC:11c5c     Total:2562579      MisBP:0   MisRate:0.00%    MPKI:0.00
PC:109f2     Total:18      MisBP:0   MisRate:0.00%    MPKI:0.00
PC:11c5e     Total:2552554      MisBP:0   MisRate:0.00%    MPKI:0.00
PC:109f4     Total:18      MisBP:0   MisRate:0.00%    MPKI:0.00
PC:10a60     Total:1      MisBP:0   MisRate:0.00%    MPKI:0.00
PC:109f6     Total:18      MisBP:0   MisRate:0.00%    MPKI:0.00
PC:11c62     Total:2519456      MisBP:0   MisRate:0.00%    MPKI:0.00
PC:109f8     Total:18      MisBP:0   MisRate:0.00%    MPKI:0.00
PC:11c64     Total:2513821      MisBP:0   MisRate:0.00%    MPKI:0.00
PC:11c66     Total:2503421      MisBP:0   MisRate:0.00%    MPKI:0.00
PC:109fc     Total:2062      MisBP:0   MisRate:0.00%    MPKI:0.00
PC:11c68     Total:2492203      MisBP:0   MisRate:0.00%    MPKI:0.00
PC:109fe     Total:876970      MisBP:0   MisRate:0.00%    MPKI:0.00
PC:11c6a     Total:2486028      MisBP:0   MisRate:0.00%    MPKI:0.00
PC:10a00     Total:868809      MisBP:0   MisRate:0.00%    MPKI:0.00
PC:11c6c     Total:2478579      MisBP:0   MisRate:0.00%    MPKI:0.00
PC:10a02     Total:867109      MisBP:0   MisRate:0.00%    MPKI:0.00
PC:10a04     Total:866615      MisBP:0   MisRate:0.00%    MPKI:0.00
PC:11c70     Total:2006664      MisBP:0   MisRate:0.00%    MPKI:0.00
PC:10a4a     Total:66      MisBP:0   MisRate:0.00%    MPKI:0.00
PC:10a30     Total:6377860      MisBP:0   MisRate:0.00%    MPKI:0.00
PC:11c9c     Total:12118      MisBP:0   MisRate:0.00%    MPKI:0.00
PC:11c9e     Total:12114      MisBP:0   MisRate:0.00%    MPKI:0.00
PC:10a34     Total:6590295      MisBP:0   MisRate:0.00%    MPKI:0.00
PC:11ca2     Total:12111      MisBP:0   MisRate:0.00%    MPKI:0.00
PC:10a3a     Total:361      MisBP:0   MisRate:0.00%    MPKI:0.00
PC:11ca6     Total:137      MisBP:0   MisRate:0.00%    MPKI:0.00
PC:10a3e     Total:709      MisBP:0   MisRate:0.00%    MPKI:0.00
PC:11caa     Total:125      MisBP:0   MisRate:0.00%    MPKI:0.00
PC:11cac     Total:125      MisBP:0   MisRate:0.00%    MPKI:0.00
PC:10a42     Total:344      MisBP:0   MisRate:0.00%    MPKI:0.00
PC:11cb0     Total:125      MisBP:0   MisRate:0.00%    MPKI:0.00
PC:10a46     Total:708747      MisBP:0   MisRate:0.00%    MPKI:0.00
PC:11cb4     Total:125      MisBP:0   MisRate:0.00%    MPKI:0.00
PC:11b94     Total:3792      MisBP:0   MisRate:0.00%    MPKI:0.00
PC:11cb6     Total:125      MisBP:0   MisRate:0.00%    MPKI:0.00
PC:10a4c     Total:2040      MisBP:0   MisRate:0.00%    MPKI:0.00
PC:11cb8     Total:11565      MisBP:0   MisRate:0.00%    MPKI:0.00
PC:10a4e     Total:2040      MisBP:0   MisRate:0.00%    MPKI:0.00
PC:11cba     Total:11558      MisBP:0   MisRate:0.00%    MPKI:0.00
PC:10a50     Total:1      MisBP:0   MisRate:0.00%    MPKI:0.00
PC:11cbc     Total:11550      MisBP:0   MisRate:0.00%    MPKI:0.00
PC:11cbe     Total:11319      MisBP:0   MisRate:0.00%    MPKI:0.00
PC:10a54     Total:1      MisBP:0   MisRate:0.00%    MPKI:0.00
PC:11cc2     Total:4135      MisBP:0   MisRate:0.00%    MPKI:0.00
PC:10a58     Total:4      MisBP:0   MisRate:0.00%    MPKI:0.00
PC:11cc6     Total:4135      MisBP:0   MisRate:0.00%    MPKI:0.00
PC:10a5c     Total:1      MisBP:0   MisRate:0.00%    MPKI:0.00
PC:11cca     Total:4135      MisBP:0   MisRate:0.00%    MPKI:0.00
PC:11a08     Total:4920      MisBP:0   MisRate:0.00%    MPKI:0.00
PC:180fa     Total:1      MisBP:0   MisRate:0.00%    MPKI:0.00
PC:54400     Total:1      MisBP:0   MisRate:0.00%    MPKI:0.00
PC:18d84     Total:9      MisBP:0   MisRate:0.00%    MPKI:0.00
PC:117fe     Total:9534      MisBP:0   MisRate:0.00%    MPKI:0.00
PC:54404     Total:1      MisBP:0   MisRate:0.00%    MPKI:0.00
PC:54408     Total:1      MisBP:0   MisRate:0.00%    MPKI:0.00
PC:11804     Total:3054      MisBP:0   MisRate:0.00%    MPKI:0.00
PC:54424     Total:1      MisBP:0   MisRate:0.00%    MPKI:0.00
PC:11820     Total:5      MisBP:0   MisRate:0.00%    MPKI:0.00
PC:54432     Total:1      MisBP:0   MisRate:0.00%    MPKI:0.00
PC:1182e     Total:4      MisBP:0   MisRate:0.00%    MPKI:0.00
PC:5443c     Total:1      MisBP:0   MisRate:0.00%    MPKI:0.00
PC:11838     Total:4      MisBP:0   MisRate:0.00%    MPKI:0.00
PC:5460c     Total:3      MisBP:0   MisRate:0.00%    MPKI:0.00
PC:180f8     Total:1      MisBP:0   MisRate:0.00%    MPKI:0.00
PC:5460e     Total:3      MisBP:0   MisRate:0.00%    MPKI:0.00
PC:54610     Total:3      MisBP:0   MisRate:0.00%    MPKI:0.00
PC:11a0c     Total:4909      MisBP:0   MisRate:0.00%    MPKI:0.00
PC:54612     Total:3      MisBP:0   MisRate:0.00%    MPKI:0.00
PC:54640     Total:2      MisBP:0   MisRate:0.00%    MPKI:0.00
PC:54644     Total:2      MisBP:0   MisRate:0.00%    MPKI:0.00
PC:11a40     Total:4823      MisBP:0   MisRate:0.00%    MPKI:0.00
PC:18dc0     Total:2      MisBP:0   MisRate:0.00%    MPKI:0.00
PC:18dc4     Total:1      MisBP:0   MisRate:0.00%    MPKI:0.00
PC:18dca     Total:1      MisBP:0   MisRate:0.00%    MPKI:0.00
PC:1e976     Total:1      MisBP:0   MisRate:0.00%    MPKI:0.00
PC:30c7e     Total:3      MisBP:0   MisRate:0.00%    MPKI:0.00
PC:108e6     Total:3      MisBP:0   MisRate:0.00%    MPKI:0.00
PC:30c9a     Total:1      MisBP:0   MisRate:0.00%    MPKI:0.00
PC:180d2     Total:1      MisBP:0   MisRate:0.00%    MPKI:0.00
PC:11bbe     Total:3706      MisBP:0   MisRate:0.00%    MPKI:0.00
PC:18a0e     Total:3      MisBP:0   MisRate:0.00%    MPKI:0.00
PC:18a12     Total:3      MisBP:0   MisRate:0.00%    MPKI:0.00
PC:18a14     Total:3      MisBP:0   MisRate:0.00%    MPKI:0.00
PC:11b98     Total:3792      MisBP:0   MisRate:0.00%    MPKI:0.00
PC:11b9c     Total:3790      MisBP:0   MisRate:0.00%    MPKI:0.00
PC:18a20     Total:1      MisBP:0   MisRate:0.00%    MPKI:0.00
PC:11ba4     Total:3763      MisBP:0   MisRate:0.00%    MPKI:0.00
PC:18a24     Total:20      MisBP:0   MisRate:0.00%    MPKI:0.00
PC:180c4     Total:3      MisBP:0   MisRate:0.00%    MPKI:0.00
PC:180c6     Total:3      MisBP:0   MisRate:0.00%    MPKI:0.00
PC:180ca     Total:3      MisBP:0   MisRate:0.00%    MPKI:0.00
PC:180cc     Total:3      MisBP:0   MisRate:0.00%    MPKI:0.00
PC:180d0     Total:1      MisBP:0   MisRate:0.00%    MPKI:0.00
PC:30c9e     Total:1      MisBP:0   MisRate:0.00%    MPKI:0.00
PC:180d4     Total:1      MisBP:0   MisRate:0.00%    MPKI:0.00
PC:180d6     Total:1      MisBP:0   MisRate:0.00%    MPKI:0.00
PC:180d8     Total:1      MisBP:0   MisRate:0.00%    MPKI:0.00
PC:180dc     Total:1      MisBP:0   MisRate:0.00%    MPKI:0.00
PC:180de     Total:1      MisBP:0   MisRate:0.00%    MPKI:0.00
PC:180e2     Total:1      MisBP:0   MisRate:0.00%    MPKI:0.00
PC:180e4     Total:10      MisBP:0   MisRate:0.00%    MPKI:0.00
PC:180e8     Total:1      MisBP:0   MisRate:0.00%    MPKI:0.00
PC:180ea     Total:1      MisBP:0   MisRate:0.00%    MPKI:0.00
PC:180ec     Total:1      MisBP:0   MisRate:0.00%    MPKI:0.00
PC:180ee     Total:1      MisBP:0   MisRate:0.00%    MPKI:0.00
PC:180f0     Total:1      MisBP:0   MisRate:0.00%    MPKI:0.00
PC:180f2     Total:1      MisBP:0   MisRate:0.00%    MPKI:0.00
PC:180f4     Total:1      MisBP:0   MisRate:0.00%    MPKI:0.00
PC:1199a     Total:3879      MisBP:0   MisRate:0.00%    MPKI:0.00
PC:2ed62     Total:1      MisBP:0   MisRate:0.00%    MPKI:0.00
PC:2ed64     Total:1      MisBP:0   MisRate:0.00%    MPKI:0.00
PC:2ed66     Total:1      MisBP:0   MisRate:0.00%    MPKI:0.00
PC:2ed6a     Total:1      MisBP:0   MisRate:0.00%    MPKI:0.00
PC:2ed6e     Total:1      MisBP:0   MisRate:0.00%    MPKI:0.00
PC:2ed70     Total:1      MisBP:0   MisRate:0.00%    MPKI:0.00
PC:2ed72     Total:1      MisBP:0   MisRate:0.00%    MPKI:0.00
PC:2ed74     Total:1      MisBP:0   MisRate:0.00%    MPKI:0.00
PC:2ed76     Total:1      MisBP:0   MisRate:0.00%    MPKI:0.00
PC:2ed7a     Total:1      MisBP:0   MisRate:0.00%    MPKI:0.00
PC:2ed7c     Total:1      MisBP:0   MisRate:0.00%    MPKI:0.00
PC:11986     Total:1      MisBP:0   MisRate:0.00%    MPKI:0.00
PC:11990     Total:1      MisBP:0   MisRate:0.00%    MPKI:0.00
PC:11994     Total:1      MisBP:0   MisRate:0.00%    MPKI:0.00
PC:2ed5e     Total:1      MisBP:0   MisRate:0.00%    MPKI:0.00
PC:1199c     Total:3879      MisBP:0   MisRate:0.00%    MPKI:0.00
PC:1199e     Total:3879      MisBP:0   MisRate:0.00%    MPKI:0.00
PC:119a0     Total:3879      MisBP:0   MisRate:0.00%    MPKI:0.00
PC:119a4     Total:3521      MisBP:0   MisRate:0.00%    MPKI:0.00
PC:119a6     Total:3521      MisBP:0   MisRate:0.00%    MPKI:0.00
PC:119a8     Total:3521      MisBP:0   MisRate:0.00%    MPKI:0.00
PC:119ac     Total:3521      MisBP:0   MisRate:0.00%    MPKI:0.00
PC:119b0     Total:3520      MisBP:0   MisRate:0.00%    MPKI:0.00
PC:119b2     Total:3581      MisBP:0   MisRate:0.00%    MPKI:0.00
PC:119b4     Total:3581      MisBP:0   MisRate:0.00%    MPKI:0.00
PC:119b6     Total:3581      MisBP:0   MisRate:0.00%    MPKI:0.00
PC:119b8     Total:3531      MisBP:0   MisRate:0.00%    MPKI:0.00
PC:119bc     Total:3531      MisBP:0   MisRate:0.00%    MPKI:0.00
PC:11b90     Total:38130      MisBP:0   MisRate:0.00%    MPKI:0.00
PC:12332     Total:1      MisBP:0   MisRate:0.00%    MPKI:0.00
PC:11b70     Total:150460      MisBP:0   MisRate:0.00%    MPKI:0.00
PC:30ca2     Total:1      MisBP:0   MisRate:0.00%    MPKI:0.00
PC:11b74     Total:326678      MisBP:0   MisRate:0.00%    MPKI:0.00
PC:30cae     Total:1      MisBP:0   MisRate:0.00%    MPKI:0.00
PC:11b80     Total:1278862      MisBP:0   MisRate:0.00%    MPKI:0.00
PC:30cb4     Total:1      MisBP:0   MisRate:0.00%    MPKI:0.00
PC:30cb6     Total:1      MisBP:0   MisRate:0.00%    MPKI:0.00
PC:11b88     Total:3271929      MisBP:0   MisRate:0.00%    MPKI:0.00
PC:30cb8     Total:1      MisBP:0   MisRate:0.00%    MPKI:0.00
PC:11b8a     Total:3271837      MisBP:0   MisRate:0.00%    MPKI:0.00
PC:30cba     Total:1      MisBP:0   MisRate:0.00%    MPKI:0.00
PC:30cbc     Total:1      MisBP:0   MisRate:0.00%    MPKI:0.00
PC:2ec08     Total:2      MisBP:0   MisRate:0.00%    MPKI:0.00
PC:12330     Total:3      MisBP:0   MisRate:0.00%    MPKI:0.00
PC:10a06     Total:864395      MisBP:0   MisRate:0.00%    MPKI:0.00
PC:12334     Total:1      MisBP:0   MisRate:0.00%    MPKI:0.00
PC:12336     Total:3      MisBP:0   MisRate:0.00%    MPKI:0.00
PC:2ed40     Total:1      MisBP:0   MisRate:0.00%    MPKI:0.00
PC:2ed44     Total:1      MisBP:0   MisRate:0.00%    MPKI:0.00
PC:2ed46     Total:1      MisBP:0   MisRate:0.00%    MPKI:0.00
PC:2ed48     Total:1      MisBP:0   MisRate:0.00%    MPKI:0.00
PC:2ed4a     Total:1      MisBP:0   MisRate:0.00%    MPKI:0.00
PC:2ed4c     Total:1      MisBP:0   MisRate:0.00%    MPKI:0.00
PC:2ed4e     Total:1      MisBP:0   MisRate:0.00%    MPKI:0.00
PC:2ed52     Total:1      MisBP:0   MisRate:0.00%    MPKI:0.00
PC:2ed56     Total:1      MisBP:0   MisRate:0.00%    MPKI:0.00
PC:2ed5a     Total:1      MisBP:0   MisRate:0.00%    MPKI:0.00
PC:2ed5c     Total:1      MisBP:0   MisRate:0.00%    MPKI:0.00
PC:11792     Total:7216      MisBP:0   MisRate:0.00%    MPKI:0.00
PC:1176e     Total:705255      MisBP:0   MisRate:0.00%    MPKI:0.00
PC:11770     Total:702620      MisBP:0   MisRate:0.00%    MPKI:0.00
PC:11774     Total:655756      MisBP:0   MisRate:0.00%    MPKI:0.00
PC:11776     Total:654290      MisBP:0   MisRate:0.00%    MPKI:0.00
PC:1177a     Total:7823      MisBP:0   MisRate:0.00%    MPKI:0.00
PC:1177c     Total:7820      MisBP:0   MisRate:0.00%    MPKI:0.00
PC:1177e     Total:7438      MisBP:0   MisRate:0.00%    MPKI:0.00
PC:11782     Total:7433      MisBP:0   MisRate:0.00%    MPKI:0.00
PC:11786     Total:7391      MisBP:0   MisRate:0.00%    MPKI:0.00
PC:11788     Total:7354      MisBP:0   MisRate:0.00%    MPKI:0.00
PC:1178a     Total:7320      MisBP:0   MisRate:0.00%    MPKI:0.00
PC:1178c     Total:7299      MisBP:0   MisRate:0.00%    MPKI:0.00
PC:1178e     Total:7295      MisBP:0   MisRate:0.00%    MPKI:0.00
PC:11790     Total:7289      MisBP:0   MisRate:0.00%    MPKI:0.00
PC:1176a     Total:62485      MisBP:0   MisRate:0.00%    MPKI:0.00
PC:11794     Total:7164      MisBP:0   MisRate:0.00%    MPKI:0.00
PC:11796     Total:7119      MisBP:0   MisRate:0.00%    MPKI:0.00
PC:1179a     Total:7206      MisBP:0   MisRate:0.00%    MPKI:0.00
PC:1179c     Total:7182      MisBP:0   MisRate:0.00%    MPKI:0.00
PC:1179e     Total:7387      MisBP:0   MisRate:0.00%    MPKI:0.00
PC:117a2     Total:10275      MisBP:0   MisRate:0.00%    MPKI:0.00
PC:117a4     Total:10274      MisBP:0   MisRate:0.00%    MPKI:0.00
[...]
PC:2f6a8     Total:1      MisBP:0   MisRate:0.00%    MPKI:0.00
PC:30262     Total:1      MisBP:0   MisRate:0.00%    MPKI:0.00
PC:30266     Total:1      MisBP:0   MisRate:0.00%    MPKI:0.00
PC:18dda     Total:7      MisBP:0   MisRate:0.00%    MPKI:0.00
PC:18dde     Total:7      MisBP:0   MisRate:0.00%    MPKI:0.00
PC:3026c     Total:1      MisBP:0   MisRate:0.00%    MPKI:0.00
PC:18de2     Total:7      MisBP:0   MisRate:0.00%    MPKI:0.00
PC:30270     Total:1      MisBP:0   MisRate:0.00%    MPKI:0.00
PC:18de4     Total:6      MisBP:0   MisRate:0.00%    MPKI:0.00
PC:21884     Total:6      MisBP:0   MisRate:0.00%    MPKI:0.00
PC:117cc     Total:10680      MisBP:0   MisRate:0.00%    MPKI:0.00
PC:30274     Total:1      MisBP:0   MisRate:0.00%    MPKI:0.00
PC:21888     Total:6      MisBP:0   MisRate:0.00%    MPKI:0.00
PC:18de8     Total:6      MisBP:0   MisRate:0.00%    MPKI:0.00
PC:30276     Total:1      MisBP:0   MisRate:0.00%    MPKI:0.00
PC:18dea     Total:6      MisBP:0   MisRate:0.00%    MPKI:0.00
PC:30278     Total:1      MisBP:0   MisRate:0.00%    MPKI:0.00
PC:2188c     Total:6      MisBP:0   MisRate:0.00%    MPKI:0.00
PC:3027a     Total:1      MisBP:0   MisRate:0.00%    MPKI:0.00
PC:1804c     Total:2      MisBP:0   MisRate:0.00%    MPKI:0.00
PC:2ec30     Total:7      MisBP:0   MisRate:0.00%    MPKI:0.00
PC:30ed8     Total:2      MisBP:0   MisRate:0.00%    MPKI:0.00
PC:30edc     Total:2      MisBP:0   MisRate:0.00%    MPKI:0.00
PC:189e2     Total:8      MisBP:0   MisRate:0.00%    MPKI:0.00
PC:30c94     Total:1      MisBP:0   MisRate:0.00%    MPKI:0.00
PC:3024e     Total:2      MisBP:0   MisRate:0.00%    MPKI:0.00
PC:11b5a     Total:1319786      MisBP:0   MisRate:0.00%    MPKI:0.00
PC:189da     Total:9      MisBP:0   MisRate:0.00%    MPKI:0.00
PC:11b5e     Total:1315340      MisBP:0   MisRate:0.00%    MPKI:0.00
PC:2ed14     Total:2      MisBP:0   MisRate:0.00%    MPKI:0.00
PC:189de     Total:9      MisBP:0   MisRate:0.00%    MPKI:0.00
PC:30c90     Total:1      MisBP:0   MisRate:0.00%    MPKI:0.00
PC:11b62     Total:1315306      MisBP:0   MisRate:0.00%    MPKI:0.00
PC:2ed18     Total:2      MisBP:0   MisRate:0.00%    MPKI:0.00
PC:2ed1c     Total:2      MisBP:0   MisRate:0.00%    MPKI:0.00
PC:2ed1e     Total:2      MisBP:0   MisRate:0.00%    MPKI:0.00
PC:2ed20     Total:2      MisBP:0   MisRate:0.00%    MPKI:0.00
PC:2ed24     Total:2      MisBP:0   MisRate:0.00%    MPKI:0.00
PC:2ed28     Total:2      MisBP:0   MisRate:0.00%    MPKI:0.00
PC:2ed2c     Total:2      MisBP:0   MisRate:0.00%    MPKI:0.00
PC:30c96     Total:1      MisBP:0   MisRate:0.00%    MPKI:0.00
PC:2ed2e     Total:2      MisBP:0   MisRate:0.00%    MPKI:0.00
PC:2ed32     Total:2      MisBP:0   MisRate:0.00%    MPKI:0.00
PC:30254     Total:1      MisBP:0   MisRate:0.00%    MPKI:0.00
PC:2ed36     Total:2      MisBP:0   MisRate:0.00%    MPKI:0.00
PC:2ed3a     Total:2      MisBP:0   MisRate:0.00%    MPKI:0.00
PC:18086     Total:6      MisBP:0   MisRate:0.00%    MPKI:0.00
PC:2ed3e     Total:2      MisBP:0   MisRate:0.00%    MPKI:0.00
PC:304fe     Total:1      MisBP:0   MisRate:0.00%    MPKI:0.00
PC:2efdc     Total:2      MisBP:0   MisRate:0.00%    MPKI:0.00
PC:2f688     Total:1      MisBP:0   MisRate:0.00%    MPKI:0.00
PC:117c4     Total:10705      MisBP:0   MisRate:0.00%    MPKI:0.00
PC:2f690     Total:1      MisBP:0   MisRate:0.00%    MPKI:0.00
PC:543d0     Total:5      MisBP:0   MisRate:0.00%    MPKI:0.00
PC:11a80     Total:312      MisBP:0   MisRate:0.00%    MPKI:0.00
PC:22ea0     Total:4      MisBP:0   MisRate:0.00%    MPKI:0.00
PC:22ea2     Total:4      MisBP:0   MisRate:0.00%    MPKI:0.00
PC:11a6c     Total:3558      MisBP:0   MisRate:0.00%    MPKI:0.00
PC:22ea4     Total:4      MisBP:0   MisRate:0.00%    MPKI:0.00
PC:11a6e     Total:3557      MisBP:0   MisRate:0.00%    MPKI:0.00
PC:22ea6     Total:11      MisBP:0   MisRate:0.00%    MPKI:0.00
PC:22ea8     Total:5      MisBP:0   MisRate:0.00%    MPKI:0.00
PC:11a72     Total:3557      MisBP:0   MisRate:0.00%    MPKI:0.00
PC:22eac     Total:5      MisBP:0   MisRate:0.00%    MPKI:0.00
PC:11a76     Total:3557      MisBP:0   MisRate:0.00%    MPKI:0.00
PC:22eb0     Total:2      MisBP:0   MisRate:0.00%    MPKI:0.00
PC:11a7a     Total:21      MisBP:0   MisRate:0.00%    MPKI:0.00
PC:22eb4     Total:6      MisBP:0   MisRate:0.00%    MPKI:0.00
PC:22eb6     Total:1      MisBP:0   MisRate:0.00%    MPKI:0.00
PC:11a68     Total:3558      MisBP:0   MisRate:0.00%    MPKI:0.00
PC:22eba     Total:1      MisBP:0   MisRate:0.00%    MPKI:0.00
PC:11a84     Total:311      MisBP:0   MisRate:0.00%    MPKI:0.00
PC:22ebc     Total:1      MisBP:0   MisRate:0.00%    MPKI:0.00
PC:11a86     Total:311      MisBP:0   MisRate:0.00%    MPKI:0.00
PC:18a26     Total:3      MisBP:0   MisRate:0.00%    MPKI:0.00
PC:18a28     Total:3      MisBP:0   MisRate:0.00%    MPKI:0.00
PC:11bac     Total:3750      MisBP:0   MisRate:0.00%    MPKI:0.00
PC:18a2a     Total:1      MisBP:0   MisRate:0.00%    MPKI:0.00
PC:18a2c     Total:1      MisBP:0   MisRate:0.00%    MPKI:0.00
PC:11bb0     Total:3733      MisBP:0   MisRate:0.00%    MPKI:0.00
PC:18a2e     Total:1      MisBP:0   MisRate:0.00%    MPKI:0.00
PC:11bb2     Total:3732      MisBP:0   MisRate:0.00%    MPKI:0.00
PC:18a30     Total:1      MisBP:0   MisRate:0.00%    MPKI:0.00
PC:18a34     Total:7      MisBP:0   MisRate:0.00%    MPKI:0.00
PC:30caa     Total:1      MisBP:0   MisRate:0.00%    MPKI:0.00
PC:189e6     Total:1      MisBP:0   MisRate:0.00%    MPKI:0.00
PC:11b6a     Total:283283      MisBP:0   MisRate:0.00%    MPKI:0.00
PC:189ea     Total:1      MisBP:0   MisRate:0.00%    MPKI:0.00
PC:11b6e     Total:150461      MisBP:0   MisRate:0.00%    MPKI:0.00
PC:189ee     Total:1      MisBP:0   MisRate:0.00%    MPKI:0.00
PC:30ca0     Total:1      MisBP:0   MisRate:0.00%    MPKI:0.00
PC:189f2     Total:1      MisBP:0   MisRate:0.00%    MPKI:0.00
PC:30ca4     Total:1      MisBP:0   MisRate:0.00%    MPKI:0.00
PC:11b76     Total:326678      MisBP:0   MisRate:0.00%    MPKI:0.00
PC:189f4     Total:1      MisBP:0   MisRate:0.00%    MPKI:0.00
PC:30ca6     Total:1      MisBP:0   MisRate:0.00%    MPKI:0.00
PC:11b78     Total:326678      MisBP:0   MisRate:0.00%    MPKI:0.00
PC:189f6     Total:1      MisBP:0   MisRate:0.00%    MPKI:0.00
PC:189f8     Total:1      MisBP:0   MisRate:0.00%    MPKI:0.00
PC:3025c     Total:1      MisBP:0   MisRate:0.00%    MPKI:0.00
PC:11b7c     Total:130745      MisBP:0   MisRate:0.00%    MPKI:0.00
PC:189fa     Total:1      MisBP:0   MisRate:0.00%    MPKI:0.00
PC:11b7e     Total:130745      MisBP:0   MisRate:0.00%    MPKI:0.00
PC:189fe     Total:1      MisBP:0   MisRate:0.00%    MPKI:0.00
PC:30cb0     Total:1      MisBP:0   MisRate:0.00%    MPKI:0.00
PC:11b82     Total:1278853      MisBP:0   MisRate:0.00%    MPKI:0.00
PC:22e90     Total:4      MisBP:0   MisRate:0.00%    MPKI:0.00
PC:11a5a     Total:3567      MisBP:0   MisRate:0.00%    MPKI:0.00
PC:22e94     Total:4      MisBP:0   MisRate:0.00%    MPKI:0.00
PC:11a5e     Total:3567      MisBP:0   MisRate:0.00%    MPKI:0.00
PC:22e96     Total:4      MisBP:0   MisRate:0.00%    MPKI:0.00
PC:22e9a     Total:4      MisBP:0   MisRate:0.00%    MPKI:0.00
PC:22e9e     Total:8      MisBP:0   MisRate:0.00%    MPKI:0.00
PC:108da     Total:1      MisBP:0   MisRate:0.00%    MPKI:0.00
PC:2ecb4     Total:4      MisBP:0   MisRate:0.00%    MPKI:0.00
PC:31812     Total:1      MisBP:0   MisRate:0.00%    MPKI:0.00
PC:1147a     Total:2      MisBP:0   MisRate:0.00%    MPKI:0.00
PC:2ec6a     Total:4      MisBP:0   MisRate:0.00%    MPKI:0.00
PC:306be     Total:1      MisBP:0   MisRate:0.00%    MPKI:0.00
PC:2ecc0     Total:3      MisBP:0   MisRate:0.00%    MPKI:0.00
PC:2ecdc     Total:2      MisBP:0   MisRate:0.00%    MPKI:0.00
PC:2ecf4     Total:2      MisBP:0   MisRate:0.00%    MPKI:0.00
PC:189be     Total:2      MisBP:0   MisRate:0.00%    MPKI:0.00
PC:2ecf8     Total:2      MisBP:0   MisRate:0.00%    MPKI:0.00
PC:189c0     Total:2      MisBP:0   MisRate:0.00%    MPKI:0.00
PC:30e70     Total:1      MisBP:0   MisRate:0.00%    MPKI:0.00
PC:11b44     Total:1233806      MisBP:0   MisRate:0.00%    MPKI:0.00
PC:2ecfa     Total:2      MisBP:0   MisRate:0.00%    MPKI:0.00
PC:189c2     Total:2      MisBP:0   MisRate:0.00%    MPKI:0.00
PC:11b46     Total:1233800      MisBP:0   MisRate:0.00%    MPKI:0.00
PC:2ecfc     Total:2      MisBP:0   MisRate:0.00%    MPKI:0.00
PC:189c6     Total:2      MisBP:0   MisRate:0.00%    MPKI:0.00
PC:11b4a     Total:389232      MisBP:0   MisRate:0.00%    MPKI:0.00
PC:2ed00     Total:2      MisBP:0   MisRate:0.00%    MPKI:0.00
PC:189ca     Total:6      MisBP:0   MisRate:0.00%    MPKI:0.00
PC:11b4e     Total:7456882      MisBP:0   MisRate:0.00%    MPKI:0.00
PC:30698     Total:8      MisBP:0   MisRate:0.00%    MPKI:0.00
PC:30686     Total:9      MisBP:0   MisRate:0.00%    MPKI:0.00
PC:2ec88     Total:4      MisBP:0   MisRate:0.00%    MPKI:0.00
PC:180aa     Total:1      MisBP:0   MisRate:0.00%    MPKI:0.00
PC:3068c     Total:9      MisBP:0   MisRate:0.00%    MPKI:0.00
PC:2ec8e     Total:4      MisBP:0   MisRate:0.00%    MPKI:0.00
PC:180ae     Total:1      MisBP:0   MisRate:0.00%    MPKI:0.00
PC:2ec92     Total:4      MisBP:0   MisRate:0.00%    MPKI:0.00
PC:180b2     Total:1      MisBP:0   MisRate:0.00%    MPKI:0.00
PC:30694     Total:8      MisBP:0   MisRate:0.00%    MPKI:0.00
PC:2ec96     Total:4      MisBP:0   MisRate:0.00%    MPKI:0.00
PC:180b6     Total:1      MisBP:0   MisRate:0.00%    MPKI:0.00
PC:30c88     Total:3      MisBP:0   MisRate:0.00%    MPKI:0.00
PC:2ec9a     Total:4      MisBP:0   MisRate:0.00%    MPKI:0.00
PC:3069a     Total:8      MisBP:0   MisRate:0.00%    MPKI:0.00
PC:2ec9c     Total:4      MisBP:0   MisRate:0.00%    MPKI:0.00
PC:30e6c     Total:2      MisBP:0   MisRate:0.00%    MPKI:0.00
PC:180ba     Total:1      MisBP:0   MisRate:0.00%    MPKI:0.00
PC:2ec9e     Total:4      MisBP:0   MisRate:0.00%    MPKI:0.00
PC:180bc     Total:1      MisBP:0   MisRate:0.00%    MPKI:0.00
PC:3069e     Total:1      MisBP:0   MisRate:0.00%    MPKI:0.00
PC:2eca0     Total:4      MisBP:0   MisRate:0.00%    MPKI:0.00
PC:180a4     Total:1      MisBP:0   MisRate:0.00%    MPKI:0.00
PC:18048     Total:2      MisBP:0   MisRate:0.00%    MPKI:0.00
PC:108ea     Total:3      MisBP:0   MisRate:0.00%    MPKI:0.00
PC:30c82     Total:3      MisBP:0   MisRate:0.00%    MPKI:0.00
PC:108ee     Total:3      MisBP:0   MisRate:0.00%    MPKI:0.00
PC:11b54     Total:3716846      MisBP:0   MisRate:0.00%    MPKI:0.00
PC:2ed0a     Total:2      MisBP:0   MisRate:0.00%    MPKI:0.00
PC:189d0     Total:7      MisBP:0   MisRate:0.00%    MPKI:0.00
PC:30ed6     Total:2      MisBP:0   MisRate:0.00%    MPKI:0.00
PC:30c86     Total:3      MisBP:0   MisRate:0.00%    MPKI:0.00
PC:30668     Total:2      MisBP:0   MisRate:0.00%    MPKI:0.00
PC:2ed0e     Total:2      MisBP:0   MisRate:0.00%    MPKI:0.00
PC:2ed04     Total:2      MisBP:0   MisRate:0.00%    MPKI:0.00
PC:189d6     Total:7      MisBP:0   MisRate:0.00%    MPKI:0.00
PC:1804a     Total:2      MisBP:0   MisRate:0.00%    MPKI:0.00
PC:2ed06     Total:2      MisBP:0   MisRate:0.00%    MPKI:0.00
PC:189d4     Total:7      MisBP:0   MisRate:0.00%    MPKI:0.00
PC:30ed4     Total:2      MisBP:0   MisRate:0.00%    MPKI:0.00
PC:2ec2c     Total:7      MisBP:0   MisRate:0.00%    MPKI:0.00
PC:2ec0c     Total:2      MisBP:1   MisRate:50.00%    MPKI:0.00
PC:30e6e     Total:2      MisBP:1   MisRate:50.00%    MPKI:0.00
PC:189e4     Total:8      MisBP:1   MisRate:12.50%    MPKI:0.00
PC:2eac0     Total:2      MisBP:1   MisRate:50.00%    MPKI:0.00
PC:2f6cc     Total:3      MisBP:1   MisRate:33.33%    MPKI:0.00
PC:180ce     Total:3      MisBP:1   MisRate:33.33%    MPKI:0.00
PC:318b8     Total:1      MisBP:1   MisRate:100.00%    MPKI:0.00
PC:18d4a     Total:6      MisBP:1   MisRate:16.67%    MPKI:0.00
PC:30054     Total:1      MisBP:1   MisRate:100.00%    MPKI:0.00
PC:318ae     Total:2      MisBP:1   MisRate:50.00%    MPKI:0.00
PC:18d66     Total:1      MisBP:1   MisRate:100.00%    MPKI:0.00
PC:30a50     Total:2      MisBP:1   MisRate:50.00%    MPKI:0.00
PC:30062     Total:1      MisBP:1   MisRate:100.00%    MPKI:0.00
PC:2ede6     Total:2      MisBP:1   MisRate:50.00%    MPKI:0.00
PC:2ed10     Total:2      MisBP:1   MisRate:50.00%    MPKI:0.00
PC:30048     Total:2      MisBP:1   MisRate:50.00%    MPKI:0.00
PC:2f804     Total:2      MisBP:1   MisRate:50.00%    MPKI:0.00
PC:30c8c     Total:3      MisBP:1   MisRate:33.33%    MPKI:0.00
PC:22eae     Total:5      MisBP:1   MisRate:20.00%    MPKI:0.00
PC:18fc8     Total:2      MisBP:1   MisRate:50.00%    MPKI:0.00
PC:10936     Total:1      MisBP:1   MisRate:100.00%    MPKI:0.00
PC:2f6e8     Total:4      MisBP:1   MisRate:25.00%    MPKI:0.00
PC:543e2     Total:3      MisBP:1   MisRate:33.33%    MPKI:0.00
PC:1183a     Total:4      MisBP:1   MisRate:25.00%    MPKI:0.00
PC:1806a     Total:3      MisBP:1   MisRate:33.33%    MPKI:0.00
PC:11aa6     Total:54      MisBP:1   MisRate:1.85%    MPKI:0.00
PC:1808a     Total:6      MisBP:1   MisRate:16.67%    MPKI:0.00
PC:2f6d0     Total:1      MisBP:1   MisRate:100.00%    MPKI:0.00
PC:1095c     Total:3      MisBP:1   MisRate:33.33%    MPKI:0.00
PC:1809c     Total:2      MisBP:1   MisRate:50.00%    MPKI:0.00
PC:2e5d0     Total:2      MisBP:1   MisRate:50.00%    MPKI:0.00
PC:2f7b8     Total:3      MisBP:1   MisRate:33.33%    MPKI:0.00
PC:2eafc     Total:5      MisBP:1   MisRate:20.00%    MPKI:0.00
PC:18a18     Total:3      MisBP:1   MisRate:33.33%    MPKI:0.00
PC:543dc     Total:5      MisBP:1   MisRate:20.00%    MPKI:0.00
PC:21786     Total:4      MisBP:1   MisRate:25.00%    MPKI:0.00
PC:2ecd6     Total:3      MisBP:1   MisRate:33.33%    MPKI:0.00
PC:2f80e     Total:5      MisBP:1   MisRate:20.00%    MPKI:0.00
PC:2f71e     Total:3      MisBP:1   MisRate:33.33%    MPKI:0.00
PC:2f682     Total:2      MisBP:1   MisRate:50.00%    MPKI:0.00
PC:2eb4a     Total:2      MisBP:1   MisRate:50.00%    MPKI:0.00
PC:18da2     Total:5      MisBP:1   MisRate:20.00%    MPKI:0.00
PC:30a46     Total:3      MisBP:1   MisRate:33.33%    MPKI:0.00
PC:18050     Total:2      MisBP:1   MisRate:50.00%    MPKI:0.00
PC:317aa     Total:3      MisBP:1   MisRate:33.33%    MPKI:0.00
PC:2f76c     Total:4      MisBP:1   MisRate:25.00%    MPKI:0.00
PC:2f7bc     Total:4      MisBP:1   MisRate:25.00%    MPKI:0.00
PC:18dc2     Total:2      MisBP:1   MisRate:50.00%    MPKI:0.00
PC:194d6     Total:2      MisBP:1   MisRate:50.00%    MPKI:0.00
PC:30250     Total:2      MisBP:1   MisRate:50.00%    MPKI:0.00
PC:189d8     Total:7      MisBP:1   MisRate:14.29%    MPKI:0.00
PC:2eb12     Total:5      MisBP:2   MisRate:40.00%    MPKI:0.00
PC:30690     Total:9      MisBP:2   MisRate:22.22%    MPKI:0.00
PC:2eb1c     Total:11      MisBP:2   MisRate:18.18%    MPKI:0.00
PC:2f71a     Total:5      MisBP:2   MisRate:40.00%    MPKI:0.00
PC:2f6fa     Total:5      MisBP:2   MisRate:40.00%    MPKI:0.00
PC:112ee     Total:104      MisBP:3   MisRate:2.88%    MPKI:0.00
PC:2eb2e     Total:10      MisBP:3   MisRate:30.00%    MPKI:0.00
PC:217f8     Total:8      MisBP:3   MisRate:37.50%    MPKI:0.00
PC:18dec     Total:6      MisBP:3   MisRate:50.00%    MPKI:0.00
PC:11cf4     Total:888      MisBP:3   MisRate:0.34%    MPKI:0.00
PC:2f6f0     Total:5      MisBP:3   MisRate:60.00%    MPKI:0.00
PC:10158     Total:18      MisBP:4   MisRate:22.22%    MPKI:0.00
PC:1183e     Total:48      MisBP:4   MisRate:8.33%    MPKI:0.00
PC:18d94     Total:7      MisBP:4   MisRate:57.14%    MPKI:0.00
PC:21894     Total:6      MisBP:4   MisRate:66.67%    MPKI:0.00
PC:11b8c     Total:1268471      MisBP:5   MisRate:0.00%    MPKI:0.00
PC:217e0     Total:33      MisBP:7   MisRate:21.21%    MPKI:0.00
PC:11c36     Total:4063      MisBP:7   MisRate:0.17%    MPKI:0.00
PC:2e63a     Total:33      MisBP:9   MisRate:27.27%    MPKI:0.00
PC:18dfa     Total:126      MisBP:9   MisRate:7.14%    MPKI:0.00
PC:1143a     Total:16625365      MisBP:10   MisRate:0.00%    MPKI:0.00
PC:11ca8     Total:137      MisBP:11   MisRate:8.03%    MPKI:0.00
PC:11cce     Total:28656      MisBP:13   MisRate:0.05%    MPKI:0.00
PC:1181e     Total:50      MisBP:14   MisRate:28.00%    MPKI:0.00
PC:11a78     Total:3556      MisBP:18   MisRate:0.51%    MPKI:0.00
PC:11740     Total:4536      MisBP:18   MisRate:0.40%    MPKI:0.00
PC:11bc0     Total:3163      MisBP:19   MisRate:0.60%    MPKI:0.00
PC:11730     Total:4934      MisBP:22   MisRate:0.45%    MPKI:0.00
PC:1181a     Total:8057      MisBP:25   MisRate:0.31%    MPKI:0.00
PC:11872     Total:6819      MisBP:26   MisRate:0.38%    MPKI:0.00
PC:10a48     Total:707668      MisBP:31   MisRate:0.00%    MPKI:0.00
PC:119e4     Total:4675      MisBP:32   MisRate:0.68%    MPKI:0.00
PC:10a38     Total:6483465      MisBP:65   MisRate:0.00%    MPKI:0.00
PC:10a3c     Total:361      MisBP:84   MisRate:23.27%    MPKI:0.00
PC:117e6     Total:10032      MisBP:90   MisRate:0.90%    MPKI:0.00
PC:118fe     Total:427769      MisBP:133   MisRate:0.03%    MPKI:0.00
PC:11bcc     Total:3109      MisBP:154   MisRate:4.95%    MPKI:0.00
PC:11ba8     Total:3762      MisBP:190   MisRate:5.05%    MPKI:0.00
PC:119e8     Total:4731      MisBP:302   MisRate:6.38%    MPKI:0.00
PC:11860     Total:7336      MisBP:389   MisRate:5.30%    MPKI:0.00
PC:11be8     Total:171095      MisBP:1196   MisRate:0.70%    MPKI:0.00
PC:1176c     Total:62081      MisBP:1197   MisRate:1.93%    MPKI:0.00
PC:11778     Total:654019      MisBP:1359   MisRate:0.21%    MPKI:0.00
PC:11ca4     Total:12107      MisBP:1376   MisRate:11.37%    MPKI:0.00
PC:11c0c     Total:168077      MisBP:1395   MisRate:0.83%    MPKI:0.00
PC:117f4     Total:8487      MisBP:1441   MisRate:16.98%    MPKI:0.00
PC:117a8     Total:10270      MisBP:1546   MisRate:15.05%    MPKI:0.00
PC:11802     Total:9520      MisBP:1791   MisRate:18.81%    MPKI:0.01
PC:118e4     Total:1185163      MisBP:1824   MisRate:0.15%    MPKI:0.01
PC:11c74     Total:1990782      MisBP:1852   MisRate:0.09%    MPKI:0.01
PC:118c0     Total:1678115      MisBP:2480   MisRate:0.15%    MPKI:0.01
PC:1187e     Total:497412      MisBP:3376   MisRate:0.68%    MPKI:0.01
PC:1186e     Total:344466      MisBP:5118   MisRate:1.49%    MPKI:0.02
PC:11c94     Total:1857647      MisBP:5155   MisRate:0.28%    MPKI:0.02
PC:11c4c     Total:805872      MisBP:6370   MisRate:0.79%    MPKI:0.02
PC:11c56     Total:2604809      MisBP:7914   MisRate:0.30%    MPKI:0.03
PC:109fa     Total:677474      MisBP:11533   MisRate:1.70%    MPKI:0.04
PC:11b68     Total:140370      MisBP:12373   MisRate:8.81%    MPKI:0.04
PC:10a28     Total:2677809      MisBP:17998   MisRate:0.67%    MPKI:0.06
PC:11b6c     Total:283265      MisBP:36272   MisRate:12.80%    MPKI:0.12
PC:118c8     Total:2816248      MisBP:44950   MisRate:1.60%    MPKI:0.14
PC:11768     Total:1035529      MisBP:44956   MisRate:4.34%    MPKI:0.15
PC:11772     Total:701024      MisBP:45917   MisRate:6.55%    MPKI:0.15
PC:1191c     Total:680616      MisBP:49473   MisRate:7.27%    MPKI:0.16
PC:11b7a     Total:326676      MisBP:53682   MisRate:16.43%    MPKI:0.17
PC:10a0e     Total:841254      MisBP:90828   MisRate:10.80%    MPKI:0.29
PC:11b86     Total:1278829      MisBP:112013   MisRate:8.76%    MPKI:0.36
PC:11b66     Total:1315291      MisBP:119055   MisRate:9.05%    MPKI:0.38
PC:118a8     Total:1004738      MisBP:153467   MisRate:15.27%    MPKI:0.50
PC:10a16     Total:3485614      MisBP:201399   MisRate:5.78%    MPKI:0.65
PC:11b48     Total:1233795      MisBP:217863   MisRate:17.66%    MPKI:0.70
PC:118cc     Total:1795836      MisBP:218098   MisRate:12.14%    MPKI:0.70
PC:11b58     Total:3715844      MisBP:330859   MisRate:8.90%    MPKI:1.07
PC:10a32     Total:6301031      MisBP:334785   MisRate:5.31%    MPKI:1.08
PC:11c6e     Total:2469639      MisBP:367091   MisRate:14.86%    MPKI:1.18
PC:11b3e     Total:3308764      MisBP:425672   MisRate:12.86%    MPKI:1.37
Totfetch:525794679  TotInsts:310000000  TotMis : inf%   MPKI : 9.47
=============finish sim!!!!!!=============
Done running SimPoint!
