Global frequency set at 1000000000000 ticks per second
 Register [printBranch()] ExitCallback !!!!!!! 
gem5 Simulator System.  https://www.gem5.org
gem5 is copyrighted software; use the --copyright option for details.

gem5 version 22.0.0.2
gem5 compiled Sep  7 2022 00:42:18
gem5 started Sep  7 2022 03:13:54
gem5 executing on a100, pid 2756216
command line: /data/zxf/gem5/gem5-prof/build/ARM/gem5.fast --outdir=/data/zxf/checkpoint/spec2006/445.gobmk/prof/gobmk_ckp_6 /data/zxf/gem5/gem5-prof/configs/example/se.py --cpu-type O3CPU --cpu-clock 1GHz --num-cpu 1 --caches --l2cache --l1i_size 32kB --l1d_size 32kB --l2_size 1MB --l1i_assoc 8 --l1d_assoc 8 --l2_assoc 16 --cacheline_size 64 --mem-type DDR3_2133_8x8 --mem-size 16GB --l1d-hwp-type=BOPPrefetcher --restore-simpoint-checkpoint -r 6 --checkpoint-dir /data/zxf/checkpoint/spec2006/445.gobmk/ckpt -i 13x13.tst -c gobmk_base.gcc41-64bit -o '--quiet --mode gtp'

info: Standard input is not a terminal, disabling listeners.
Resuming from /data/zxf/checkpoint/spec2006/445.gobmk/ckpt/cpt.simpoint_05_inst_109490000000_weight_0.030974_interval_300000000_warmup_10000000
Resuming from SimPoint #5, start_inst:109490000000, weight:0.030974, interval:300000000, warmup:10000000
Switch at curTick count:10000
Switched CPUS @ tick 74080125960000
[(<m5.objects.ArmCPU.ArmAtomicSimpleCPU object at 0x7f57bd9aabb0>, <m5.objects.ArmCPU.ArmO3CPU object at 0x7f57bd9c3e20>)]
switching cpus



+++++++++++++++++++++++++zxf print simpoint+++++++++++++++++++++++++++
Warmed up! Dumping and resetting stats!


=============start sim!!!!!!=============
PC:2fadc     Total:5951      MisBP:0   MisRate:0.00%    MPKI:0.00
PC:159c6     Total:60356      MisBP:0   MisRate:0.00%    MPKI:0.00
PC:47c58     Total:29019      MisBP:0   MisRate:0.00%    MPKI:0.00
PC:33812     Total:282      MisBP:0   MisRate:0.00%    MPKI:0.00
PC:9a260     Total:389      MisBP:0   MisRate:0.00%    MPKI:0.00
PC:47c56     Total:29019      MisBP:0   MisRate:0.00%    MPKI:0.00
PC:333e0     Total:51      MisBP:0   MisRate:0.00%    MPKI:0.00
PC:159c2     Total:60356      MisBP:0   MisRate:0.00%    MPKI:0.00
PC:2eb0c     Total:13600      MisBP:0   MisRate:0.00%    MPKI:0.00
PC:333da     Total:8      MisBP:0   MisRate:0.00%    MPKI:0.00
PC:2eb06     Total:13600      MisBP:0   MisRate:0.00%    MPKI:0.00
PC:47c4a     Total:23039      MisBP:0   MisRate:0.00%    MPKI:0.00
PC:333d4     Total:2      MisBP:0   MisRate:0.00%    MPKI:0.00
PC:47c46     Total:23040      MisBP:0   MisRate:0.00%    MPKI:0.00
PC:333d0     Total:2      MisBP:0   MisRate:0.00%    MPKI:0.00
PC:333e4     Total:294      MisBP:0   MisRate:0.00%    MPKI:0.00
PC:2fada     Total:1640      MisBP:0   MisRate:0.00%    MPKI:0.00
PC:2fad6     Total:5881      MisBP:0   MisRate:0.00%    MPKI:0.00
PC:2fad4     Total:5690      MisBP:0   MisRate:0.00%    MPKI:0.00
PC:2fad0     Total:11380      MisBP:0   MisRate:0.00%    MPKI:0.00
PC:2face     Total:193      MisBP:0   MisRate:0.00%    MPKI:0.00
PC:2facc     Total:193      MisBP:0   MisRate:0.00%    MPKI:0.00
PC:2faca     Total:193      MisBP:0   MisRate:0.00%    MPKI:0.00
PC:2fac8     Total:193      MisBP:0   MisRate:0.00%    MPKI:0.00
PC:2fac6     Total:175      MisBP:0   MisRate:0.00%    MPKI:0.00
PC:2fac4     Total:175      MisBP:0   MisRate:0.00%    MPKI:0.00
PC:1b9bc     Total:945      MisBP:0   MisRate:0.00%    MPKI:0.00
PC:2fac2     Total:175      MisBP:0   MisRate:0.00%    MPKI:0.00
PC:2fac0     Total:175      MisBP:0   MisRate:0.00%    MPKI:0.00
PC:47ec0     Total:1372      MisBP:0   MisRate:0.00%    MPKI:0.00
PC:48098     Total:29      MisBP:0   MisRate:0.00%    MPKI:0.00
PC:9a282     Total:259      MisBP:0   MisRate:0.00%    MPKI:0.00
PC:2eb2e     Total:1299      MisBP:0   MisRate:0.00%    MPKI:0.00
PC:3382e     Total:431      MisBP:0   MisRate:0.00%    MPKI:0.00
PC:480a4     Total:128      MisBP:0   MisRate:0.00%    MPKI:0.00
PC:47c72     Total:25277      MisBP:0   MisRate:0.00%    MPKI:0.00
PC:2eb28     Total:1299      MisBP:0   MisRate:0.00%    MPKI:0.00
PC:33824     Total:235      MisBP:0   MisRate:0.00%    MPKI:0.00
PC:9a272     Total:389      MisBP:0   MisRate:0.00%    MPKI:0.00
PC:4809a     Total:29      MisBP:0   MisRate:0.00%    MPKI:0.00
PC:47c68     Total:25280      MisBP:0   MisRate:0.00%    MPKI:0.00
PC:333f2     Total:294      MisBP:0   MisRate:0.00%    MPKI:0.00
PC:2eb1e     Total:1299      MisBP:0   MisRate:0.00%    MPKI:0.00
PC:33822     Total:235      MisBP:0   MisRate:0.00%    MPKI:0.00
PC:9a270     Total:389      MisBP:0   MisRate:0.00%    MPKI:0.00
PC:24cf2     Total:59533      MisBP:0   MisRate:0.00%    MPKI:0.00
PC:159d2     Total:49622      MisBP:0   MisRate:0.00%    MPKI:0.00
PC:2eb1c     Total:1299      MisBP:0   MisRate:0.00%    MPKI:0.00
PC:47c64     Total:33856      MisBP:0   MisRate:0.00%    MPKI:0.00
PC:333ee     Total:294      MisBP:0   MisRate:0.00%    MPKI:0.00
PC:3381e     Total:235      MisBP:0   MisRate:0.00%    MPKI:0.00
PC:9a26c     Total:389      MisBP:0   MisRate:0.00%    MPKI:0.00
PC:2eb18     Total:1299      MisBP:0   MisRate:0.00%    MPKI:0.00
PC:2eb16     Total:1299      MisBP:0   MisRate:0.00%    MPKI:0.00
PC:3381a     Total:235      MisBP:0   MisRate:0.00%    MPKI:0.00
PC:9a268     Total:389      MisBP:0   MisRate:0.00%    MPKI:0.00
PC:47c5e     Total:32406      MisBP:0   MisRate:0.00%    MPKI:0.00
PC:333e8     Total:294      MisBP:0   MisRate:0.00%    MPKI:0.00
PC:2eb14     Total:1302      MisBP:0   MisRate:0.00%    MPKI:0.00
PC:9a264     Total:389      MisBP:0   MisRate:0.00%    MPKI:0.00
PC:1ac4e     Total:5330      MisBP:0   MisRate:0.00%    MPKI:0.00
PC:15c18     Total:1624      MisBP:0   MisRate:0.00%    MPKI:0.00
PC:3ed04     Total:5129      MisBP:0   MisRate:0.00%    MPKI:0.00
PC:318f6     Total:465      MisBP:0   MisRate:0.00%    MPKI:0.00
PC:98fb4     Total:29      MisBP:0   MisRate:0.00%    MPKI:0.00
PC:32566     Total:182      MisBP:0   MisRate:0.00%    MPKI:0.00
PC:47ea4     Total:4551      MisBP:0   MisRate:0.00%    MPKI:0.00
PC:1ac52     Total:5330      MisBP:0   MisRate:0.00%    MPKI:0.00
PC:24cd6     Total:61585      MisBP:0   MisRate:0.00%    MPKI:0.00
PC:1a916     Total:216732      MisBP:0   MisRate:0.00%    MPKI:0.00
PC:9e4d0     Total:73097      MisBP:0   MisRate:0.00%    MPKI:0.00
PC:2ed5a     Total:35      MisBP:0   MisRate:0.00%    MPKI:0.00
PC:1a4e4     Total:92      MisBP:0   MisRate:0.00%    MPKI:0.00
PC:318f2     Total:465      MisBP:0   MisRate:0.00%    MPKI:0.00
PC:47ea0     Total:4551      MisBP:0   MisRate:0.00%    MPKI:0.00
PC:24cde     Total:61616      MisBP:0   MisRate:0.00%    MPKI:0.00
PC:24cd2     Total:61541      MisBP:0   MisRate:0.00%    MPKI:0.00
PC:47e9c     Total:4551      MisBP:0   MisRate:0.00%    MPKI:0.00
PC:1ac4a     Total:73284      MisBP:0   MisRate:0.00%    MPKI:0.00
PC:24cce     Total:4642      MisBP:0   MisRate:0.00%    MPKI:0.00
PC:15c08     Total:3293      MisBP:0   MisRate:0.00%    MPKI:0.00
PC:3ecf4     Total:5344      MisBP:0   MisRate:0.00%    MPKI:0.00
PC:1a90e     Total:217641      MisBP:0   MisRate:0.00%    MPKI:0.00
PC:2ed52     Total:119      MisBP:0   MisRate:0.00%    MPKI:0.00
PC:1a4dc     Total:92      MisBP:0   MisRate:0.00%    MPKI:0.00
PC:318ea     Total:465      MisBP:0   MisRate:0.00%    MPKI:0.00
PC:187a0     Total:185166      MisBP:0   MisRate:0.00%    MPKI:0.00
PC:4188c     Total:2      MisBP:0   MisRate:0.00%    MPKI:0.00
PC:47e98     Total:4551      MisBP:0   MisRate:0.00%    MPKI:0.00
PC:24cca     Total:66358      MisBP:0   MisRate:0.00%    MPKI:0.00
PC:33a70     Total:294      MisBP:0   MisRate:0.00%    MPKI:0.00
PC:33a78     Total:89      MisBP:0   MisRate:0.00%    MPKI:0.00
PC:1f634     Total:1443      MisBP:0   MisRate:0.00%    MPKI:0.00
PC:47ebc     Total:4326      MisBP:0   MisRate:0.00%    MPKI:0.00
PC:24cee     Total:59452      MisBP:0   MisRate:0.00%    MPKI:0.00
PC:33a74     Total:294      MisBP:0   MisRate:0.00%    MPKI:0.00
PC:482ea     Total:183      MisBP:0   MisRate:0.00%    MPKI:0.00
PC:1f630     Total:1443      MisBP:0   MisRate:0.00%    MPKI:0.00
PC:47eb8     Total:4421      MisBP:0   MisRate:0.00%    MPKI:0.00
PC:24cea     Total:59455      MisBP:0   MisRate:0.00%    MPKI:0.00
PC:15c24     Total:1625      MisBP:0   MisRate:0.00%    MPKI:0.00
PC:3ed10     Total:5239      MisBP:0   MisRate:0.00%    MPKI:0.00
PC:9e4e4     Total:35761      MisBP:0   MisRate:0.00%    MPKI:0.00
PC:2ed6e     Total:33      MisBP:0   MisRate:0.00%    MPKI:0.00
PC:1a4f8     Total:300      MisBP:0   MisRate:0.00%    MPKI:0.00
PC:2eb32     Total:1500      MisBP:0   MisRate:0.00%    MPKI:0.00
PC:482e6     Total:183      MisBP:0   MisRate:0.00%    MPKI:0.00
PC:98fc4     Total:287      MisBP:0   MisRate:0.00%    MPKI:0.00
PC:32576     Total:232      MisBP:0   MisRate:0.00%    MPKI:0.00
PC:1f62c     Total:1443      MisBP:0   MisRate:0.00%    MPKI:0.00
PC:47eb4     Total:4421      MisBP:0   MisRate:0.00%    MPKI:0.00
PC:24ce6     Total:61591      MisBP:0   MisRate:0.00%    MPKI:0.00
PC:15c20     Total:1625      MisBP:0   MisRate:0.00%    MPKI:0.00
PC:3ed0c     Total:5239      MisBP:0   MisRate:0.00%    MPKI:0.00
PC:318fe     Total:1593      MisBP:0   MisRate:0.00%    MPKI:0.00
PC:4103c     Total:1964      MisBP:0   MisRate:0.00%    MPKI:0.00
PC:17f50     Total:43563      MisBP:0   MisRate:0.00%    MPKI:0.00
PC:418a0     Total:2      MisBP:0   MisRate:0.00%    MPKI:0.00
PC:1f624     Total:1485      MisBP:0   MisRate:0.00%    MPKI:0.00
PC:47eac     Total:4421      MisBP:0   MisRate:0.00%    MPKI:0.00
PC:98ebc     Total:44      MisBP:0   MisRate:0.00%    MPKI:0.00
PC:4780c     Total:9949      MisBP:0   MisRate:0.00%    MPKI:0.00
PC:15e2a     Total:13606      MisBP:0   MisRate:0.00%    MPKI:0.00
PC:1ae6a     Total:5350      MisBP:0   MisRate:0.00%    MPKI:0.00
PC:999e2     Total:6      MisBP:0   MisRate:0.00%    MPKI:0.00
PC:2f6d6     Total:337      MisBP:0   MisRate:0.00%    MPKI:0.00
PC:999d8     Total:6      MisBP:0   MisRate:0.00%    MPKI:0.00
PC:1ae58     Total:11601      MisBP:0   MisRate:0.00%    MPKI:0.00
PC:1ae4a     Total:11602      MisBP:0   MisRate:0.00%    MPKI:0.00
PC:5ccf6     Total:12      MisBP:0   MisRate:0.00%    MPKI:0.00
PC:999c2     Total:231      MisBP:0   MisRate:0.00%    MPKI:0.00
PC:477ea     Total:10685      MisBP:0   MisRate:0.00%    MPKI:0.00
PC:32f74     Total:1      MisBP:0   MisRate:0.00%    MPKI:0.00
PC:15e08     Total:14911      MisBP:0   MisRate:0.00%    MPKI:0.00
PC:15e00     Total:14916      MisBP:0   MisRate:0.00%    MPKI:0.00
PC:999e4     Total:12      MisBP:0   MisRate:0.00%    MPKI:0.00
PC:47dac     Total:36      MisBP:0   MisRate:0.00%    MPKI:0.00
PC:33536     Total:2      MisBP:0   MisRate:0.00%    MPKI:0.00
PC:485c2     Total:71      MisBP:0   MisRate:0.00%    MPKI:0.00
PC:15b18     Total:12224      MisBP:0   MisRate:0.00%    MPKI:0.00
PC:1a81e     Total:100      MisBP:0   MisRate:0.00%    MPKI:0.00
PC:98eb8     Total:238      MisBP:0   MisRate:0.00%    MPKI:0.00
PC:47da8     Total:37      MisBP:0   MisRate:0.00%    MPKI:0.00
PC:33532     Total:2      MisBP:0   MisRate:0.00%    MPKI:0.00
PC:47da4     Total:37      MisBP:0   MisRate:0.00%    MPKI:0.00
PC:3352e     Total:2      MisBP:0   MisRate:0.00%    MPKI:0.00
PC:485ba     Total:1      MisBP:0   MisRate:0.00%    MPKI:0.00
PC:15b10     Total:12523      MisBP:0   MisRate:0.00%    MPKI:0.00
PC:2ec5a     Total:1512      MisBP:0   MisRate:0.00%    MPKI:0.00
PC:47d98     Total:272      MisBP:0   MisRate:0.00%    MPKI:0.00
PC:484ac     Total:810      MisBP:0   MisRate:0.00%    MPKI:0.00
PC:2e0c8     Total:1149      MisBP:0   MisRate:0.00%    MPKI:0.00
PC:1aebe     Total:4337      MisBP:0   MisRate:0.00%    MPKI:0.00
PC:2f734     Total:381      MisBP:0   MisRate:0.00%    MPKI:0.00
PC:1aeb0     Total:4503      MisBP:0   MisRate:0.00%    MPKI:0.00
PC:2f726     Total:116      MisBP:0   MisRate:0.00%    MPKI:0.00
PC:1ae92     Total:12861      MisBP:0   MisRate:0.00%    MPKI:0.00
PC:2f708     Total:153      MisBP:0   MisRate:0.00%    MPKI:0.00
PC:1ae8e     Total:12861      MisBP:0   MisRate:0.00%    MPKI:0.00
PC:2f704     Total:153      MisBP:0   MisRate:0.00%    MPKI:0.00
PC:5cd2e     Total:43      MisBP:0   MisRate:0.00%    MPKI:0.00
PC:484b8     Total:772      MisBP:0   MisRate:0.00%    MPKI:0.00
PC:999fa     Total:12      MisBP:0   MisRate:0.00%    MPKI:0.00
PC:47822     Total:32036      MisBP:0   MisRate:0.00%    MPKI:0.00
PC:5cd22     Total:149      MisBP:0   MisRate:0.00%    MPKI:0.00
PC:485ae     Total:177      MisBP:0   MisRate:0.00%    MPKI:0.00
PC:999ee     Total:12      MisBP:0   MisRate:0.00%    MPKI:0.00
PC:47816     Total:31833      MisBP:0   MisRate:0.00%    MPKI:0.00
PC:5cd1e     Total:25      MisBP:0   MisRate:0.00%    MPKI:0.00
PC:999ea     Total:12      MisBP:0   MisRate:0.00%    MPKI:0.00
PC:47812     Total:31515      MisBP:0   MisRate:0.00%    MPKI:0.00
PC:1ae70     Total:5298      MisBP:0   MisRate:0.00%    MPKI:0.00
PC:5cd1c     Total:25      MisBP:0   MisRate:0.00%    MPKI:0.00
PC:484a6     Total:810      MisBP:0   MisRate:0.00%    MPKI:0.00
PC:999e8     Total:12      MisBP:0   MisRate:0.00%    MPKI:0.00
PC:47810     Total:31514      MisBP:0   MisRate:0.00%    MPKI:0.00
PC:1ae6e     Total:5350      MisBP:0   MisRate:0.00%    MPKI:0.00
PC:999e6     Total:12      MisBP:0   MisRate:0.00%    MPKI:0.00
PC:1ae6c     Total:5350      MisBP:0   MisRate:0.00%    MPKI:0.00
PC:2f6e2     Total:330      MisBP:0   MisRate:0.00%    MPKI:0.00
PC:484a0     Total:1636      MisBP:0   MisRate:0.00%    MPKI:0.00
PC:3385a     Total:290      MisBP:0   MisRate:0.00%    MPKI:0.00
PC:480d0     Total:64      MisBP:0   MisRate:0.00%    MPKI:0.00
PC:47c9e     Total:329      MisBP:0   MisRate:0.00%    MPKI:0.00
PC:33856     Total:290      MisBP:0   MisRate:0.00%    MPKI:0.00
PC:480cc     Total:16      MisBP:0   MisRate:0.00%    MPKI:0.00
PC:15a06     Total:46353      MisBP:0   MisRate:0.00%    MPKI:0.00
PC:3eaf2     Total:2622      MisBP:0   MisRate:0.00%    MPKI:0.00
PC:33852     Total:290      MisBP:0   MisRate:0.00%    MPKI:0.00
PC:480c8     Total:25      MisBP:0   MisRate:0.00%    MPKI:0.00
PC:47c96     Total:3259      MisBP:0   MisRate:0.00%    MPKI:0.00
PC:33846     Total:266      MisBP:0   MisRate:0.00%    MPKI:0.00
PC:480bc     Total:19      MisBP:0   MisRate:0.00%    MPKI:0.00
PC:47c8a     Total:10594      MisBP:0   MisRate:0.00%    MPKI:0.00
PC:33414     Total:174      MisBP:0   MisRate:0.00%    MPKI:0.00
PC:2eb5a     Total:1339      MisBP:0   MisRate:0.00%    MPKI:0.00
PC:5cd16     Total:24      MisBP:0   MisRate:0.00%    MPKI:0.00
PC:159f6     Total:44037      MisBP:0   MisRate:0.00%    MPKI:0.00
PC:3eae2     Total:345      MisBP:0   MisRate:0.00%    MPKI:0.00
PC:3383c     Total:415      MisBP:0   MisRate:0.00%    MPKI:0.00
PC:9a28a     Total:259      MisBP:0   MisRate:0.00%    MPKI:0.00
PC:47c80     Total:25112      MisBP:0   MisRate:0.00%    MPKI:0.00
PC:48496     Total:8075      MisBP:0   MisRate:0.00%    MPKI:0.00
PC:5cd0c     Total:8      MisBP:0   MisRate:0.00%    MPKI:0.00
PC:2eb36     Total:1500      MisBP:0   MisRate:0.00%    MPKI:0.00
PC:2fae0     Total:517      MisBP:0   MisRate:0.00%    MPKI:0.00
PC:33838     Total:417      MisBP:0   MisRate:0.00%    MPKI:0.00
PC:47c7c     Total:26589      MisBP:0   MisRate:0.00%    MPKI:0.00
PC:48492     Total:930      MisBP:0   MisRate:0.00%    MPKI:0.00
PC:5cd08     Total:5      MisBP:0   MisRate:0.00%    MPKI:0.00
PC:33874     Total:81      MisBP:0   MisRate:0.00%    MPKI:0.00
PC:15b04     Total:12647      MisBP:0   MisRate:0.00%    MPKI:0.00
PC:3ebf0     Total:6119      MisBP:0   MisRate:0.00%    MPKI:0.00
PC:485aa     Total:177      MisBP:0   MisRate:0.00%    MPKI:0.00
PC:15b00     Total:12648      MisBP:0   MisRate:0.00%    MPKI:0.00
PC:3ebec     Total:6123      MisBP:0   MisRate:0.00%    MPKI:0.00
PC:2ec42     Total:825      MisBP:0   MisRate:0.00%    MPKI:0.00
PC:1a3cc     Total:295      MisBP:0   MisRate:0.00%    MPKI:0.00
PC:4859a     Total:208      MisBP:0   MisRate:0.00%    MPKI:0.00
PC:15af0     Total:13889      MisBP:0   MisRate:0.00%    MPKI:0.00
PC:33878     Total:81      MisBP:0   MisRate:0.00%    MPKI:0.00
PC:47cbc     Total:90      MisBP:0   MisRate:0.00%    MPKI:0.00
PC:33446     Total:170      MisBP:0   MisRate:0.00%    MPKI:0.00
PC:3da96     Total:1903      MisBP:0   MisRate:0.00%    MPKI:0.00
PC:29220     Total:2168      MisBP:0   MisRate:0.00%    MPKI:0.00
PC:15c04     Total:3293      MisBP:0   MisRate:0.00%    MPKI:0.00
PC:47cb8     Total:90      MisBP:0   MisRate:0.00%    MPKI:0.00
PC:33442     Total:170      MisBP:0   MisRate:0.00%    MPKI:0.00
PC:484ce     Total:764      MisBP:0   MisRate:0.00%    MPKI:0.00
PC:15a24     Total:30503      MisBP:0   MisRate:0.00%    MPKI:0.00
PC:3eb10     Total:2424      MisBP:0   MisRate:0.00%    MPKI:0.00
PC:33bb0     Total:229      MisBP:0   MisRate:0.00%    MPKI:0.00
PC:2eb6e     Total:1564      MisBP:0   MisRate:0.00%    MPKI:0.00
PC:3da90     Total:1903      MisBP:0   MisRate:0.00%    MPKI:0.00
PC:3386e     Total:81      MisBP:0   MisRate:0.00%    MPKI:0.00
PC:47cb2     Total:90      MisBP:0   MisRate:0.00%    MPKI:0.00
PC:3343c     Total:180      MisBP:0   MisRate:0.00%    MPKI:0.00
PC:995d8     Total:31      MisBP:0   MisRate:0.00%    MPKI:0.00
PC:84d62     Total:50324      MisBP:0   MisRate:0.00%    MPKI:0.00
PC:3342e     Total:180      MisBP:0   MisRate:0.00%    MPKI:0.00
PC:2ec2a     Total:3009      MisBP:0   MisRate:0.00%    MPKI:0.00
PC:2eed6     Total:3      MisBP:0   MisRate:0.00%    MPKI:0.00
PC:2eaa4     Total:2190      MisBP:0   MisRate:0.00%    MPKI:0.00
PC:337a6     Total:76      MisBP:0   MisRate:0.00%    MPKI:0.00
PC:48400     Total:1075      MisBP:0   MisRate:0.00%    MPKI:0.00
PC:15956     Total:49336      MisBP:0   MisRate:0.00%    MPKI:0.00
PC:33938     Total:47      MisBP:0   MisRate:0.00%    MPKI:0.00
PC:98e8c     Total:241      MisBP:0   MisRate:0.00%    MPKI:0.00
PC:3243e     Total:467      MisBP:0   MisRate:0.00%    MPKI:0.00
PC:15ae8     Total:11932      MisBP:0   MisRate:0.00%    MPKI:0.00
PC:33934     Total:55      MisBP:0   MisRate:0.00%    MPKI:0.00
PC:98e88     Total:241      MisBP:0   MisRate:0.00%    MPKI:0.00
PC:3243a     Total:126      MisBP:0   MisRate:0.00%    MPKI:0.00
PC:33930     Total:23      MisBP:0   MisRate:0.00%    MPKI:0.00
PC:98e84     Total:241      MisBP:0   MisRate:0.00%    MPKI:0.00
PC:1a660     Total:411      MisBP:0   MisRate:0.00%    MPKI:0.00
PC:33928     Total:7      MisBP:0   MisRate:0.00%    MPKI:0.00
PC:98e7c     Total:252      MisBP:0   MisRate:0.00%    MPKI:0.00
PC:3242e     Total:126      MisBP:0   MisRate:0.00%    MPKI:0.00
PC:4203a     Total:162      MisBP:0   MisRate:0.00%    MPKI:0.00
PC:18f4e     Total:45      MisBP:0   MisRate:0.00%    MPKI:0.00
PC:2d7c4     Total:15495      MisBP:0   MisRate:0.00%    MPKI:0.00
PC:9314a     Total:252      MisBP:0   MisRate:0.00%    MPKI:0.00
PC:40f72     Total:5030      MisBP:0   MisRate:0.00%    MPKI:0.00
PC:48582     Total:61      MisBP:0   MisRate:0.00%    MPKI:0.00
PC:15ad8     Total:11827      MisBP:0   MisRate:0.00%    MPKI:0.00
PC:3ebc4     Total:2546      MisBP:0   MisRate:0.00%    MPKI:0.00
PC:2ec22     Total:3120      MisBP:0   MisRate:0.00%    MPKI:0.00
PC:33924     Total:7      MisBP:0   MisRate:0.00%    MPKI:0.00
PC:6069c     Total:36      MisBP:0   MisRate:0.00%    MPKI:0.00
PC:1ac7a     Total:4864      MisBP:0   MisRate:0.00%    MPKI:0.00
PC:33662     Total:180      MisBP:0   MisRate:0.00%    MPKI:0.00
PC:24d0a     Total:29163      MisBP:0   MisRate:0.00%    MPKI:0.00
PC:15c44     Total:1341      MisBP:0   MisRate:0.00%    MPKI:0.00
PC:3ed30     Total:4385      MisBP:0   MisRate:0.00%    MPKI:0.00
PC:31926     Total:726      MisBP:0   MisRate:0.00%    MPKI:0.00
PC:1f64c     Total:114      MisBP:0   MisRate:0.00%    MPKI:0.00
PC:47ed4     Total:3360      MisBP:0   MisRate:0.00%    MPKI:0.00
PC:3365e     Total:180      MisBP:0   MisRate:0.00%    MPKI:0.00
PC:24d06     Total:29167      MisBP:0   MisRate:0.00%    MPKI:0.00
PC:15c40     Total:1341      MisBP:0   MisRate:0.00%    MPKI:0.00
PC:3ed2c     Total:4661      MisBP:0   MisRate:0.00%    MPKI:0.00
PC:3191e     Total:560      MisBP:0   MisRate:0.00%    MPKI:0.00
PC:47ecc     Total:3360      MisBP:0   MisRate:0.00%    MPKI:0.00
PC:33656     Total:180      MisBP:0   MisRate:0.00%    MPKI:0.00
PC:15ad4     Total:11828      MisBP:0   MisRate:0.00%    MPKI:0.00
PC:15c38     Total:1577      MisBP:0   MisRate:0.00%    MPKI:0.00
PC:3ed24     Total:5222      MisBP:0   MisRate:0.00%    MPKI:0.00
PC:3191a     Total:560      MisBP:0   MisRate:0.00%    MPKI:0.00
PC:98fd8     Total:285      MisBP:0   MisRate:0.00%    MPKI:0.00
PC:3258a     Total:172      MisBP:0   MisRate:0.00%    MPKI:0.00
PC:24cfa     Total:30912      MisBP:0   MisRate:0.00%    MPKI:0.00
PC:15c34     Total:1577      MisBP:0   MisRate:0.00%    MPKI:0.00
PC:3ed20     Total:5229      MisBP:0   MisRate:0.00%    MPKI:0.00
PC:31916     Total:565      MisBP:0   MisRate:0.00%    MPKI:0.00
PC:47ec4     Total:10092      MisBP:0   MisRate:0.00%    MPKI:0.00
PC:24cf6     Total:30876      MisBP:0   MisRate:0.00%    MPKI:0.00
PC:337aa     Total:76      MisBP:0   MisRate:0.00%    MPKI:0.00
PC:6154e     Total:7      MisBP:0   MisRate:0.00%    MPKI:0.00
PC:9eeb0     Total:35860      MisBP:0   MisRate:0.00%    MPKI:0.00
PC:1ad42     Total:1959      MisBP:0   MisRate:0.00%    MPKI:0.00
PC:3eba4     Total:146      MisBP:0   MisRate:0.00%    MPKI:0.00
PC:2ec02     Total:90121      MisBP:0   MisRate:0.00%    MPKI:0.00
PC:42016     Total:972      MisBP:0   MisRate:0.00%    MPKI:0.00
PC:2d7a0     Total:260      MisBP:0   MisRate:0.00%    MPKI:0.00
PC:6067c     Total:428      MisBP:0   MisRate:0.00%    MPKI:0.00
PC:93126     Total:2482      MisBP:0   MisRate:0.00%    MPKI:0.00
PC:2ebfe     Total:91762      MisBP:0   MisRate:0.00%    MPKI:0.00
PC:15ab0     Total:15569      MisBP:0   MisRate:0.00%    MPKI:0.00
PC:3eb9c     Total:146      MisBP:0   MisRate:0.00%    MPKI:0.00
PC:1ad46     Total:1959      MisBP:0   MisRate:0.00%    MPKI:0.00
PC:15d04     Total:15218      MisBP:0   MisRate:0.00%    MPKI:0.00
PC:3edf0     Total:3270      MisBP:0   MisRate:0.00%    MPKI:0.00
PC:47f94     Total:1624      MisBP:0   MisRate:0.00%    MPKI:0.00
PC:3371e     Total:110      MisBP:0   MisRate:0.00%    MPKI:0.00
PC:15ab8     Total:15975      MisBP:0   MisRate:0.00%    MPKI:0.00
PC:15d00     Total:15218      MisBP:0   MisRate:0.00%    MPKI:0.00
PC:1ad2a     Total:37372      MisBP:0   MisRate:0.00%    MPKI:0.00
PC:99074     Total:44      MisBP:0   MisRate:0.00%    MPKI:0.00
PC:1f6dc     Total:6092      MisBP:0   MisRate:0.00%    MPKI:0.00
PC:47f64     Total:4353      MisBP:0   MisRate:0.00%    MPKI:0.00
PC:1ad12     Total:39790      MisBP:0   MisRate:0.00%    MPKI:0.00
PC:7b214     Total:376      MisBP:0   MisRate:0.00%    MPKI:0.00
PC:3d8b2     Total:78      MisBP:0   MisRate:0.00%    MPKI:0.00
PC:15cc0     Total:2861      MisBP:0   MisRate:0.00%    MPKI:0.00
PC:3edac     Total:4958      MisBP:0   MisRate:0.00%    MPKI:0.00
PC:15cb0     Total:8484      MisBP:0   MisRate:0.00%    MPKI:0.00
PC:3ed9c     Total:1      MisBP:0   MisRate:0.00%    MPKI:0.00
PC:1acf2     Total:35495      MisBP:0   MisRate:0.00%    MPKI:0.00
PC:1a584     Total:31      MisBP:0   MisRate:0.00%    MPKI:0.00
PC:6068c     Total:236      MisBP:0   MisRate:0.00%    MPKI:0.00
PC:3391c     Total:253      MisBP:0   MisRate:0.00%    MPKI:0.00
PC:47d60     Total:5917      MisBP:0   MisRate:0.00%    MPKI:0.00
PC:334ea     Total:14      MisBP:0   MisRate:0.00%    MPKI:0.00
PC:47d5c     Total:1040      MisBP:0   MisRate:0.00%    MPKI:0.00
PC:334e6     Total:14      MisBP:0   MisRate:0.00%    MPKI:0.00
PC:4202a     Total:1027      MisBP:0   MisRate:0.00%    MPKI:0.00
PC:18f3e     Total:19811      MisBP:0   MisRate:0.00%    MPKI:0.00
PC:2d7b4     Total:352      MisBP:0   MisRate:0.00%    MPKI:0.00
PC:60690     Total:21      MisBP:0   MisRate:0.00%    MPKI:0.00
PC:9313a     Total:2103      MisBP:0   MisRate:0.00%    MPKI:0.00
PC:17e76     Total:21502      MisBP:0   MisRate:0.00%    MPKI:0.00
PC:42026     Total:1027      MisBP:0   MisRate:0.00%    MPKI:0.00
PC:18f3a     Total:22798      MisBP:0   MisRate:0.00%    MPKI:0.00
PC:2d7b0     Total:352      MisBP:0   MisRate:0.00%    MPKI:0.00
PC:47ed8     Total:3339      MisBP:0   MisRate:0.00%    MPKI:0.00
PC:93136     Total:2481      MisBP:0   MisRate:0.00%    MPKI:0.00
PC:17e72     Total:25843      MisBP:0   MisRate:0.00%    MPKI:0.00
PC:40f5e     Total:538      MisBP:0   MisRate:0.00%    MPKI:0.00
PC:4856e     Total:364      MisBP:0   MisRate:0.00%    MPKI:0.00
PC:15ac4     Total:12598      MisBP:0   MisRate:0.00%    MPKI:0.00
PC:3ebb0     Total:146      MisBP:0   MisRate:0.00%    MPKI:0.00
PC:60684     Total:86      MisBP:0   MisRate:0.00%    MPKI:0.00
PC:9312e     Total:2482      MisBP:0   MisRate:0.00%    MPKI:0.00
PC:48566     Total:142      MisBP:0   MisRate:0.00%    MPKI:0.00
PC:15abc     Total:15973      MisBP:0   MisRate:0.00%    MPKI:0.00
PC:3eba8     Total:146      MisBP:0   MisRate:0.00%    MPKI:0.00
PC:2ec06     Total:90121      MisBP:0   MisRate:0.00%    MPKI:0.00
PC:60680     Total:1465      MisBP:0   MisRate:0.00%    MPKI:0.00
PC:9312a     Total:2482      MisBP:0   MisRate:0.00%    MPKI:0.00
PC:1a8ee     Total:57037      MisBP:0   MisRate:0.00%    MPKI:0.00
PC:3360a     Total:182      MisBP:0   MisRate:0.00%    MPKI:0.00
PC:1ac2e     Total:83464      MisBP:0   MisRate:0.00%    MPKI:0.00
PC:2f4a4     Total:324      MisBP:0   MisRate:0.00%    MPKI:0.00
PC:15bec     Total:3816      MisBP:0   MisRate:0.00%    MPKI:0.00
PC:1a8f2     Total:57036      MisBP:0   MisRate:0.00%    MPKI:0.00
PC:2ed36     Total:330      MisBP:0   MisRate:0.00%    MPKI:0.00
PC:1a4c0     Total:92      MisBP:0   MisRate:0.00%    MPKI:0.00
PC:318ce     Total:468      MisBP:0   MisRate:0.00%    MPKI:0.00
PC:98f8c     Total:238      MisBP:0   MisRate:0.00%    MPKI:0.00
PC:47e7c     Total:5185      MisBP:0   MisRate:0.00%    MPKI:0.00
PC:33606     Total:348      MisBP:0   MisRate:0.00%    MPKI:0.00
PC:1ac2a     Total:83466      MisBP:0   MisRate:0.00%    MPKI:0.00
PC:2f4a0     Total:324      MisBP:0   MisRate:0.00%    MPKI:0.00
PC:15be8     Total:12328      MisBP:0   MisRate:0.00%    MPKI:0.00
PC:47e80     Total:4595      MisBP:0   MisRate:0.00%    MPKI:0.00
PC:2ed32     Total:330      MisBP:0   MisRate:0.00%    MPKI:0.00
PC:1a4bc     Total:92      MisBP:0   MisRate:0.00%    MPKI:0.00
PC:98f88     Total:1925      MisBP:0   MisRate:0.00%    MPKI:0.00
PC:47e78     Total:5187      MisBP:0   MisRate:0.00%    MPKI:0.00
PC:33602     Total:348      MisBP:0   MisRate:0.00%    MPKI:0.00
PC:15be4     Total:675      MisBP:0   MisRate:0.00%    MPKI:0.00
PC:2ed2e     Total:330      MisBP:0   MisRate:0.00%    MPKI:0.00
PC:1a4b8     Total:92      MisBP:0   MisRate:0.00%    MPKI:0.00
PC:47e74     Total:5187      MisBP:0   MisRate:0.00%    MPKI:0.00
PC:335fe     Total:460      MisBP:0   MisRate:0.00%    MPKI:0.00
PC:15be0     Total:675      MisBP:0   MisRate:0.00%    MPKI:0.00
PC:2ed2a     Total:291      MisBP:0   MisRate:0.00%    MPKI:0.00
PC:1a4b4     Total:93      MisBP:0   MisRate:0.00%    MPKI:0.00
PC:47e70     Total:5229      MisBP:0   MisRate:0.00%    MPKI:0.00
PC:47e8c     Total:4595      MisBP:0   MisRate:0.00%    MPKI:0.00
PC:3ecf0     Total:5303      MisBP:0   MisRate:0.00%    MPKI:0.00
PC:1a90a     Total:435544      MisBP:0   MisRate:0.00%    MPKI:0.00
PC:9e4c4     Total:39175      MisBP:0   MisRate:0.00%    MPKI:0.00
PC:2ed4e     Total:127      MisBP:0   MisRate:0.00%    MPKI:0.00
PC:1a4d8     Total:92      MisBP:0   MisRate:0.00%    MPKI:0.00
PC:318e6     Total:468      MisBP:0   MisRate:0.00%    MPKI:0.00
PC:98fa4     Total:29      MisBP:0   MisRate:0.00%    MPKI:0.00
PC:47e94     Total:4595      MisBP:0   MisRate:0.00%    MPKI:0.00
PC:1ac42     Total:73337      MisBP:0   MisRate:0.00%    MPKI:0.00
PC:24cc6     Total:235286      MisBP:0   MisRate:0.00%    MPKI:0.00
PC:15c00     Total:3293      MisBP:0   MisRate:0.00%    MPKI:0.00
PC:3ecec     Total:5340      MisBP:0   MisRate:0.00%    MPKI:0.00
PC:318de     Total:468      MisBP:0   MisRate:0.00%    MPKI:0.00
PC:98f9c     Total:29      MisBP:0   MisRate:0.00%    MPKI:0.00
PC:335fa     Total:460      MisBP:0   MisRate:0.00%    MPKI:0.00
PC:1ac3a     Total:80007      MisBP:0   MisRate:0.00%    MPKI:0.00
PC:1a8fe     Total:54647      MisBP:0   MisRate:0.00%    MPKI:0.00
PC:1a4cc     Total:92      MisBP:0   MisRate:0.00%    MPKI:0.00
PC:47e88     Total:4595      MisBP:0   MisRate:0.00%    MPKI:0.00
PC:318d6     Total:468      MisBP:0   MisRate:0.00%    MPKI:0.00
PC:98f94     Total:238      MisBP:0   MisRate:0.00%    MPKI:0.00
PC:47e84     Total:4595      MisBP:0   MisRate:0.00%    MPKI:0.00
PC:3360e     Total:10      MisBP:0   MisRate:0.00%    MPKI:0.00
PC:1ac32     Total:80078      MisBP:0   MisRate:0.00%    MPKI:0.00
PC:2f4a8     Total:324      MisBP:0   MisRate:0.00%    MPKI:0.00
PC:1a8f6     Total:57031      MisBP:0   MisRate:0.00%    MPKI:0.00
PC:2ed3a     Total:330      MisBP:0   MisRate:0.00%    MPKI:0.00
PC:1a4c4     Total:92      MisBP:0   MisRate:0.00%    MPKI:0.00
PC:98f90     Total:238      MisBP:0   MisRate:0.00%    MPKI:0.00
PC:47efc     Total:3308      MisBP:0   MisRate:0.00%    MPKI:0.00
PC:2eeee     Total:3      MisBP:0   MisRate:0.00%    MPKI:0.00
PC:2eabc     Total:15577      MisBP:0   MisRate:0.00%    MPKI:0.00
PC:1acce     Total:20393      MisBP:0   MisRate:0.00%    MPKI:0.00
PC:3ed78     Total:3      MisBP:0   MisRate:0.00%    MPKI:0.00
PC:2edd6     Total:325      MisBP:0   MisRate:0.00%    MPKI:0.00
PC:1a560     Total:223      MisBP:0   MisRate:0.00%    MPKI:0.00
PC:3195e     Total:520      MisBP:0   MisRate:0.00%    MPKI:0.00
PC:9901c     Total:27      MisBP:0   MisRate:0.00%    MPKI:0.00
PC:1f684     Total:174873      MisBP:0   MisRate:0.00%    MPKI:0.00
PC:47f0c     Total:3263      MisBP:0   MisRate:0.00%    MPKI:0.00
PC:33696     Total:376      MisBP:0   MisRate:0.00%    MPKI:0.00
PC:1acba     Total:53539      MisBP:0   MisRate:0.00%    MPKI:0.00
PC:15c78     Total:1254      MisBP:0   MisRate:0.00%    MPKI:0.00
PC:3194e     Total:421      MisBP:0   MisRate:0.00%    MPKI:0.00
PC:1a678     Total:388      MisBP:0   MisRate:0.00%    MPKI:0.00
PC:33686     Total:403      MisBP:0   MisRate:0.00%    MPKI:0.00
PC:31932     Total:726      MisBP:0   MisRate:0.00%    MPKI:0.00
PC:1f658     Total:114      MisBP:0   MisRate:0.00%    MPKI:0.00
PC:98ff0     Total:39      MisBP:0   MisRate:0.00%    MPKI:0.00
PC:325a2     Total:260      MisBP:0   MisRate:0.00%    MPKI:0.00
PC:47ee0     Total:3338      MisBP:0   MisRate:0.00%    MPKI:0.00
PC:3366a     Total:180      MisBP:0   MisRate:0.00%    MPKI:0.00
PC:24d12     Total:28310      MisBP:0   MisRate:0.00%    MPKI:0.00
PC:1f654     Total:114      MisBP:0   MisRate:0.00%    MPKI:0.00
PC:47edc     Total:3339      MisBP:0   MisRate:0.00%    MPKI:0.00
PC:33666     Total:180      MisBP:0   MisRate:0.00%    MPKI:0.00
PC:24d0e     Total:29160      MisBP:0   MisRate:0.00%    MPKI:0.00
PC:1f650     Total:114      MisBP:0   MisRate:0.00%    MPKI:0.00
PC:3259a     Total:55      MisBP:0   MisRate:0.00%    MPKI:0.00
PC:47e60     Total:16003      MisBP:0   MisRate:0.00%    MPKI:0.00
PC:318ba     Total:426      MisBP:0   MisRate:0.00%    MPKI:0.00
PC:47e68     Total:5229      MisBP:0   MisRate:0.00%    MPKI:0.00
PC:335f2     Total:462      MisBP:0   MisRate:0.00%    MPKI:0.00
PC:1ac16     Total:115574      MisBP:0   MisRate:0.00%    MPKI:0.00
PC:2f48c     Total:324      MisBP:0   MisRate:0.00%    MPKI:0.00
PC:318b6     Total:408      MisBP:0   MisRate:0.00%    MPKI:0.00
PC:335ee     Total:480      MisBP:0   MisRate:0.00%    MPKI:0.00
PC:1ac12     Total:115585      MisBP:0   MisRate:0.00%    MPKI:0.00
PC:2f488     Total:324      MisBP:0   MisRate:0.00%    MPKI:0.00
PC:15bd0     Total:10681      MisBP:0   MisRate:0.00%    MPKI:0.00
PC:3ecbc     Total:2372      MisBP:0   MisRate:0.00%    MPKI:0.00
PC:1a8d6     Total:661      MisBP:0   MisRate:0.00%    MPKI:0.00
PC:2ed1a     Total:2416      MisBP:0   MisRate:0.00%    MPKI:0.00
PC:1a4a4     Total:93      MisBP:0   MisRate:0.00%    MPKI:0.00
PC:41876     Total:4      MisBP:0   MisRate:0.00%    MPKI:0.00
PC:335ea     Total:480      MisBP:0   MisRate:0.00%    MPKI:0.00
PC:1a8d2     Total:663      MisBP:0   MisRate:0.00%    MPKI:0.00
PC:2ed16     Total:1105      MisBP:0   MisRate:0.00%    MPKI:0.00
PC:1a4a0     Total:93      MisBP:0   MisRate:0.00%    MPKI:0.00
PC:47c3e     Total:636      MisBP:0   MisRate:0.00%    MPKI:0.00
PC:2eaf4     Total:4574      MisBP:0   MisRate:0.00%    MPKI:0.00
PC:1599a     Total:74713      MisBP:0   MisRate:0.00%    MPKI:0.00
PC:1a68a     Total:7597      MisBP:0   MisRate:0.00%    MPKI:0.00
PC:2eace     Total:186494      MisBP:0   MisRate:0.00%    MPKI:0.00
PC:337c2     Total:53      MisBP:0   MisRate:0.00%    MPKI:0.00
PC:47c06     Total:1794      MisBP:0   MisRate:0.00%    MPKI:0.00
PC:61566     Total:7      MisBP:0   MisRate:0.00%    MPKI:0.00
PC:9eec8     Total:35860      MisBP:0   MisRate:0.00%    MPKI:0.00
PC:2d5a4     Total:49765      MisBP:0   MisRate:0.00%    MPKI:0.00
PC:41e2a     Total:37      MisBP:0   MisRate:0.00%    MPKI:0.00
PC:2fe36     Total:2944      MisBP:0   MisRate:0.00%    MPKI:0.00
PC:325f4     Total:179      MisBP:0   MisRate:0.00%    MPKI:0.00
PC:99042     Total:45      MisBP:0   MisRate:0.00%    MPKI:0.00
PC:6005c     Total:9      MisBP:0   MisRate:0.00%    MPKI:0.00
PC:36f70     Total:362      MisBP:0   MisRate:0.00%    MPKI:0.00
PC:2d5b2     Total:872      MisBP:0   MisRate:0.00%    MPKI:0.00
PC:18d3c     Total:65740      MisBP:0   MisRate:0.00%    MPKI:0.00
PC:325f2     Total:179      MisBP:0   MisRate:0.00%    MPKI:0.00
PC:99040     Total:45      MisBP:0   MisRate:0.00%    MPKI:0.00
PC:41e22     Total:56      MisBP:0   MisRate:0.00%    MPKI:0.00
PC:18d36     Total:66516      MisBP:0   MisRate:0.00%    MPKI:0.00
PC:325e6     Total:376      MisBP:0   MisRate:0.00%    MPKI:0.00
PC:99034     Total:292      MisBP:0   MisRate:0.00%    MPKI:0.00
PC:2d5b4     Total:872      MisBP:0   MisRate:0.00%    MPKI:0.00
PC:41e1a     Total:56      MisBP:0   MisRate:0.00%    MPKI:0.00
PC:18d2e     Total:80004      MisBP:0   MisRate:0.00%    MPKI:0.00
PC:325e4     Total:376      MisBP:0   MisRate:0.00%    MPKI:0.00
PC:99032     Total:27      MisBP:0   MisRate:0.00%    MPKI:0.00
PC:2fe24     Total:7788      MisBP:0   MisRate:0.00%    MPKI:0.00
PC:325e2     Total:115      MisBP:0   MisRate:0.00%    MPKI:0.00
PC:99030     Total:27      MisBP:0   MisRate:0.00%    MPKI:0.00
PC:2d5a0     Total:49765      MisBP:0   MisRate:0.00%    MPKI:0.00
PC:2fe20     Total:7788      MisBP:0   MisRate:0.00%    MPKI:0.00
PC:16cd6     Total:4091      MisBP:0   MisRate:0.00%    MPKI:0.00
PC:3fdc2     Total:2      MisBP:0   MisRate:0.00%    MPKI:0.00
PC:325de     Total:115      MisBP:0   MisRate:0.00%    MPKI:0.00
PC:60046     Total:9      MisBP:0   MisRate:0.00%    MPKI:0.00
PC:36f5a     Total:377      MisBP:0   MisRate:0.00%    MPKI:0.00
PC:2fe3c     Total:2944      MisBP:0   MisRate:0.00%    MPKI:0.00
PC:16cfc     Total:1765      MisBP:0   MisRate:0.00%    MPKI:0.00
PC:32604     Total:161      MisBP:0   MisRate:0.00%    MPKI:0.00
PC:99052     Total:45      MisBP:0   MisRate:0.00%    MPKI:0.00
PC:2fe44     Total:5067      MisBP:0   MisRate:0.00%    MPKI:0.00
PC:32602     Total:161      MisBP:0   MisRate:0.00%    MPKI:0.00
PC:99050     Total:45      MisBP:0   MisRate:0.00%    MPKI:0.00
PC:2fe40     Total:2875      MisBP:0   MisRate:0.00%    MPKI:0.00
PC:325fe     Total:161      MisBP:0   MisRate:0.00%    MPKI:0.00
PC:9904c     Total:45      MisBP:0   MisRate:0.00%    MPKI:0.00
PC:19178     Total:11071      MisBP:0   MisRate:0.00%    MPKI:0.00
PC:42264     Total:71      MisBP:0   MisRate:0.00%    MPKI:0.00
PC:2d5bc     Total:2683      MisBP:0   MisRate:0.00%    MPKI:0.00
PC:41e32     Total:1164      MisBP:0   MisRate:0.00%    MPKI:0.00
PC:18d46     Total:55492      MisBP:0   MisRate:0.00%    MPKI:0.00
PC:19158     Total:17320      MisBP:0   MisRate:0.00%    MPKI:0.00
PC:1bd34     Total:542      MisBP:0   MisRate:0.00%    MPKI:0.00
PC:325fa     Total:179      MisBP:0   MisRate:0.00%    MPKI:0.00
PC:99048     Total:45      MisBP:0   MisRate:0.00%    MPKI:0.00
PC:60062     Total:9      MisBP:0   MisRate:0.00%    MPKI:0.00
PC:36f76     Total:345      MisBP:0   MisRate:0.00%    MPKI:0.00
PC:19174     Total:11191      MisBP:0   MisRate:0.00%    MPKI:0.00
PC:42260     Total:71      MisBP:0   MisRate:0.00%    MPKI:0.00
PC:2d5b8     Total:872      MisBP:0   MisRate:0.00%    MPKI:0.00
PC:41e2e     Total:37      MisBP:0   MisRate:0.00%    MPKI:0.00
PC:18d42     Total:55492      MisBP:0   MisRate:0.00%    MPKI:0.00
PC:325f6     Total:179      MisBP:0   MisRate:0.00%    MPKI:0.00
PC:99044     Total:45      MisBP:0   MisRate:0.00%    MPKI:0.00
PC:19170     Total:11191      MisBP:0   MisRate:0.00%    MPKI:0.00
PC:4225c     Total:71      MisBP:0   MisRate:0.00%    MPKI:0.00
PC:16cbc     Total:5718      MisBP:0   MisRate:0.00%    MPKI:0.00
PC:9901e     Total:27      MisBP:0   MisRate:0.00%    MPKI:0.00
PC:42236     Total:48      MisBP:0   MisRate:0.00%    MPKI:0.00
PC:60038     Total:11      MisBP:0   MisRate:0.00%    MPKI:0.00
PC:36f4c     Total:402      MisBP:0   MisRate:0.00%    MPKI:0.00
PC:2fe0e     Total:7649      MisBP:0   MisRate:0.00%    MPKI:0.00
PC:1bd06     Total:796      MisBP:0   MisRate:0.00%    MPKI:0.00
PC:325cc     Total:132      MisBP:0   MisRate:0.00%    MPKI:0.00
PC:19146     Total:16902      MisBP:0   MisRate:0.00%    MPKI:0.00
PC:2fe0c     Total:7649      MisBP:0   MisRate:0.00%    MPKI:0.00
PC:325ca     Total:132      MisBP:0   MisRate:0.00%    MPKI:0.00
PC:99018     Total:27      MisBP:0   MisRate:0.00%    MPKI:0.00
PC:60032     Total:11      MisBP:0   MisRate:0.00%    MPKI:0.00
PC:41dfe     Total:1120      MisBP:0   MisRate:0.00%    MPKI:0.00
PC:2fe06     Total:14904      MisBP:0   MisRate:0.00%    MPKI:0.00
PC:325d0     Total:149      MisBP:0   MisRate:0.00%    MPKI:0.00
PC:3fda8     Total:5      MisBP:0   MisRate:0.00%    MPKI:0.00
PC:325c4     Total:132      MisBP:0   MisRate:0.00%    MPKI:0.00
PC:99012     Total:27      MisBP:0   MisRate:0.00%    MPKI:0.00
PC:6002c     Total:84      MisBP:0   MisRate:0.00%    MPKI:0.00
PC:30eae     Total:173      MisBP:0   MisRate:0.00%    MPKI:0.00
PC:2ff3e     Total:73      MisBP:0   MisRate:0.00%    MPKI:0.00
PC:3c91e     Total:22343      MisBP:0   MisRate:0.00%    MPKI:0.00
PC:326fc     Total:4      MisBP:0   MisRate:0.00%    MPKI:0.00
PC:9914a     Total:2      MisBP:0   MisRate:0.00%    MPKI:0.00
PC:2ff3c     Total:180      MisBP:0   MisRate:0.00%    MPKI:0.00
PC:1a92e     Total:207967      MisBP:0   MisRate:0.00%    MPKI:0.00
PC:9e4e8     Total:35757      MisBP:0   MisRate:0.00%    MPKI:0.00
PC:16df2     Total:1170      MisBP:0   MisRate:0.00%    MPKI:0.00
PC:3fede     Total:10940      MisBP:0   MisRate:0.00%    MPKI:0.00
PC:36f54     Total:377      MisBP:0   MisRate:0.00%    MPKI:0.00
PC:2d59c     Total:49765      MisBP:0   MisRate:0.00%    MPKI:0.00
PC:41e12     Total:57      MisBP:0   MisRate:0.00%    MPKI:0.00
PC:2fe1c     Total:7800      MisBP:0   MisRate:0.00%    MPKI:0.00
PC:1bd14     Total:796      MisBP:0   MisRate:0.00%    MPKI:0.00
PC:325da     Total:115      MisBP:0   MisRate:0.00%    MPKI:0.00
PC:99028     Total:27      MisBP:0   MisRate:0.00%    MPKI:0.00
PC:19154     Total:17320      MisBP:0   MisRate:0.00%    MPKI:0.00
PC:42240     Total:1      MisBP:0   MisRate:0.00%    MPKI:0.00
PC:2d598     Total:49765      MisBP:0   MisRate:0.00%    MPKI:0.00
PC:2fe1a     Total:7958      MisBP:0   MisRate:0.00%    MPKI:0.00
PC:16cd0     Total:4091      MisBP:0   MisRate:0.00%    MPKI:0.00
PC:325d8     Total:115      MisBP:0   MisRate:0.00%    MPKI:0.00
PC:99026     Total:27      MisBP:0   MisRate:0.00%    MPKI:0.00
PC:60040     Total:9      MisBP:0   MisRate:0.00%    MPKI:0.00
PC:1bd3e     Total:16      MisBP:0   MisRate:0.00%    MPKI:0.00
PC:2fe18     Total:7693      MisBP:0   MisRate:0.00%    MPKI:0.00
PC:1bd10     Total:796      MisBP:0   MisRate:0.00%    MPKI:0.00
PC:325d6     Total:115      MisBP:0   MisRate:0.00%    MPKI:0.00
PC:2fe16     Total:7705      MisBP:0   MisRate:0.00%    MPKI:0.00
PC:1bd0e     Total:796      MisBP:0   MisRate:0.00%    MPKI:0.00
PC:99022     Total:27      MisBP:0   MisRate:0.00%    MPKI:0.00
PC:1914e     Total:8262      MisBP:0   MisRate:0.00%    MPKI:0.00
PC:2fe14     Total:7705      MisBP:0   MisRate:0.00%    MPKI:0.00
PC:1bd0c     Total:796      MisBP:0   MisRate:0.00%    MPKI:0.00
PC:325d2     Total:149      MisBP:0   MisRate:0.00%    MPKI:0.00
PC:99020     Total:27      MisBP:0   MisRate:0.00%    MPKI:0.00
PC:2d590     Total:51468      MisBP:0   MisRate:0.00%    MPKI:0.00
PC:41e06     Total:1019      MisBP:0   MisRate:0.00%    MPKI:0.00
PC:2fe12     Total:7705      MisBP:0   MisRate:0.00%    MPKI:0.00
PC:2d5fc     Total:13505      MisBP:0   MisRate:0.00%    MPKI:0.00
PC:18d8c     Total:59      MisBP:0   MisRate:0.00%    MPKI:0.00
PC:32640     Total:161      MisBP:0   MisRate:0.00%    MPKI:0.00
PC:9908e     Total:17      MisBP:0   MisRate:0.00%    MPKI:0.00
PC:36fbc     Total:51      MisBP:0   MisRate:0.00%    MPKI:0.00
PC:2d5fe     Total:13505      MisBP:0   MisRate:0.00%    MPKI:0.00
PC:41e74     Total:7881      MisBP:0   MisRate:0.00%    MPKI:0.00
PC:18d88     Total:59      MisBP:0   MisRate:0.00%    MPKI:0.00
PC:301bc     Total:372      MisBP:0   MisRate:0.00%    MPKI:0.00
PC:1b946     Total:10      MisBP:0   MisRate:0.00%    MPKI:0.00
PC:1bd78     Total:11166      MisBP:0   MisRate:0.00%    MPKI:0.00
PC:3263e     Total:206      MisBP:0   MisRate:0.00%    MPKI:0.00
PC:9908c     Total:17      MisBP:0   MisRate:0.00%    MPKI:0.00
PC:600a6     Total:8      MisBP:0   MisRate:0.00%    MPKI:0.00
PC:36fba     Total:51      MisBP:0   MisRate:0.00%    MPKI:0.00
PC:2d602     Total:12732      MisBP:0   MisRate:0.00%    MPKI:0.00
PC:41e72     Total:7882      MisBP:0   MisRate:0.00%    MPKI:0.00
PC:3263c     Total:206      MisBP:0   MisRate:0.00%    MPKI:0.00
PC:9908a     Total:17      MisBP:0   MisRate:0.00%    MPKI:0.00
PC:301b8     Total:372      MisBP:0   MisRate:0.00%    MPKI:0.00
PC:1b942     Total:97      MisBP:0   MisRate:0.00%    MPKI:0.00
PC:3263a     Total:206      MisBP:0   MisRate:0.00%    MPKI:0.00
PC:99088     Total:17      MisBP:0   MisRate:0.00%    MPKI:0.00
PC:600a2     Total:5      MisBP:0   MisRate:0.00%    MPKI:0.00
PC:36fb6     Total:52      MisBP:0   MisRate:0.00%    MPKI:0.00
PC:2d5f8     Total:13505      MisBP:0   MisRate:0.00%    MPKI:0.00
PC:32638     Total:206      MisBP:0   MisRate:0.00%    MPKI:0.00
PC:99086     Total:17      MisBP:0   MisRate:0.00%    MPKI:0.00
PC:32636     Total:206      MisBP:0   MisRate:0.00%    MPKI:0.00
PC:99084     Total:17      MisBP:0   MisRate:0.00%    MPKI:0.00
PC:1b952     Total:30604      MisBP:0   MisRate:0.00%    MPKI:0.00
PC:32650     Total:179      MisBP:0   MisRate:0.00%    MPKI:0.00
PC:9909e     Total:256      MisBP:0   MisRate:0.00%    MPKI:0.00
PC:2d60e     Total:12732      MisBP:0   MisRate:0.00%    MPKI:0.00
PC:18d98     Total:59      MisBP:0   MisRate:0.00%    MPKI:0.00
PC:301cc     Total:292      MisBP:0   MisRate:0.00%    MPKI:0.00
PC:1b956     Total:30604      MisBP:0   MisRate:0.00%    MPKI:0.00
PC:7953c     Total:208      MisBP:0   MisRate:0.00%    MPKI:0.00
PC:3264e     Total:179      MisBP:0   MisRate:0.00%    MPKI:0.00
PC:9909c     Total:17      MisBP:0   MisRate:0.00%    MPKI:0.00
PC:600b6     Total:40      MisBP:0   MisRate:0.00%    MPKI:0.00
PC:36fca     Total:10      MisBP:0   MisRate:0.00%    MPKI:0.00
PC:2d60c     Total:12732      MisBP:0   MisRate:0.00%    MPKI:0.00
PC:41e82     Total:9075      MisBP:0   MisRate:0.00%    MPKI:0.00
PC:301c8     Total:292      MisBP:0   MisRate:0.00%    MPKI:0.00
PC:6009e     Total:5      MisBP:0   MisRate:0.00%    MPKI:0.00
PC:3264a     Total:179      MisBP:0   MisRate:0.00%    MPKI:0.00
PC:99098     Total:17      MisBP:0   MisRate:0.00%    MPKI:0.00
PC:600b2     Total:8      MisBP:0   MisRate:0.00%    MPKI:0.00
PC:36fc6     Total:10      MisBP:0   MisRate:0.00%    MPKI:0.00
PC:2d608     Total:12732      MisBP:0   MisRate:0.00%    MPKI:0.00
PC:41e7e     Total:7786      MisBP:0   MisRate:0.00%    MPKI:0.00
PC:2d604     Total:12732      MisBP:0   MisRate:0.00%    MPKI:0.00
PC:41e7a     Total:8350      MisBP:0   MisRate:0.00%    MPKI:0.00
PC:301c2     Total:292      MisBP:0   MisRate:0.00%    MPKI:0.00
PC:1b94c     Total:30604      MisBP:0   MisRate:0.00%    MPKI:0.00
PC:32644     Total:185      MisBP:0   MisRate:0.00%    MPKI:0.00
PC:99092     Total:17      MisBP:0   MisRate:0.00%    MPKI:0.00
PC:600ac     Total:8      MisBP:0   MisRate:0.00%    MPKI:0.00
PC:36fc0     Total:10      MisBP:0   MisRate:0.00%    MPKI:0.00
PC:30194     Total:391      MisBP:0   MisRate:0.00%    MPKI:0.00
PC:1bd5a     Total:1042      MisBP:0   MisRate:0.00%    MPKI:0.00
PC:7950e     Total:81      MisBP:0   MisRate:0.00%    MPKI:0.00
PC:32620     Total:160      MisBP:0   MisRate:0.00%    MPKI:0.00
PC:2fe60     Total:5491      MisBP:0   MisRate:0.00%    MPKI:0.00
PC:7950c     Total:81      MisBP:0   MisRate:0.00%    MPKI:0.00
PC:3261e     Total:160      MisBP:0   MisRate:0.00%    MPKI:0.00
PC:2fe5e     Total:5491      MisBP:0   MisRate:0.00%    MPKI:0.00
PC:1bd56     Total:1042      MisBP:0   MisRate:0.00%    MPKI:0.00
PC:7950a     Total:81      MisBP:0   MisRate:0.00%    MPKI:0.00
PC:3261c     Total:160      MisBP:0   MisRate:0.00%    MPKI:0.00
PC:2fe5c     Total:5533      MisBP:0   MisRate:0.00%    MPKI:0.00
PC:3261a     Total:160      MisBP:0   MisRate:0.00%    MPKI:0.00
PC:99068     Total:44      MisBP:0   MisRate:0.00%    MPKI:0.00
PC:2fe58     Total:5293      MisBP:0   MisRate:0.00%    MPKI:0.00
PC:2fe62     Total:5491      MisBP:0   MisRate:0.00%    MPKI:0.00
PC:1b91e     Total:402      MisBP:0   MisRate:0.00%    MPKI:0.00
PC:79504     Total:81      MisBP:0   MisRate:0.00%    MPKI:0.00
PC:32616     Total:161      MisBP:0   MisRate:0.00%    MPKI:0.00
PC:99064     Total:44      MisBP:0   MisRate:0.00%    MPKI:0.00
PC:32612     Total:161      MisBP:0   MisRate:0.00%    MPKI:0.00
PC:99060     Total:44      MisBP:0   MisRate:0.00%    MPKI:0.00
PC:794fe     Total:81      MisBP:0   MisRate:0.00%    MPKI:0.00
PC:32610     Total:161      MisBP:0   MisRate:0.00%    MPKI:0.00
PC:2fe4e     Total:5552      MisBP:0   MisRate:0.00%    MPKI:0.00
PC:3260c     Total:161      MisBP:0   MisRate:0.00%    MPKI:0.00
PC:9905a     Total:44      MisBP:0   MisRate:0.00%    MPKI:0.00
PC:2fe4a     Total:5326      MisBP:0   MisRate:0.00%    MPKI:0.00
PC:32608     Total:161      MisBP:0   MisRate:0.00%    MPKI:0.00
PC:2fe46     Total:5067      MisBP:0   MisRate:0.00%    MPKI:0.00
PC:32632     Total:206      MisBP:0   MisRate:0.00%    MPKI:0.00
PC:36fb2     Total:53      MisBP:0   MisRate:0.00%    MPKI:0.00
PC:2d5f4     Total:13505      MisBP:0   MisRate:0.00%    MPKI:0.00
PC:41e6a     Total:7658      MisBP:0   MisRate:0.00%    MPKI:0.00
PC:2fe76     Total:9419      MisBP:0   MisRate:0.00%    MPKI:0.00
PC:32634     Total:206      MisBP:0   MisRate:0.00%    MPKI:0.00
PC:6009c     Total:35      MisBP:0   MisRate:0.00%    MPKI:0.00
PC:36fb0     Total:53      MisBP:0   MisRate:0.00%    MPKI:0.00
PC:2d5f2     Total:13505      MisBP:0   MisRate:0.00%    MPKI:0.00
PC:41e68     Total:7490      MisBP:0   MisRate:0.00%    MPKI:0.00
PC:18d7c     Total:958877      MisBP:0   MisRate:0.00%    MPKI:0.00
PC:2fe74     Total:10376      MisBP:0   MisRate:0.00%    MPKI:0.00
PC:301b0     Total:372      MisBP:0   MisRate:0.00%    MPKI:0.00
PC:1b93a     Total:141      MisBP:0   MisRate:0.00%    MPKI:0.00
PC:1bd6c     Total:5923      MisBP:0   MisRate:0.00%    MPKI:0.00
PC:795e8     Total:45      MisBP:0   MisRate:0.00%    MPKI:0.00
PC:99080     Total:17      MisBP:0   MisRate:0.00%    MPKI:0.00
PC:2fe72     Total:10376      MisBP:0   MisRate:0.00%    MPKI:0.00
PC:301ae     Total:372      MisBP:0   MisRate:0.00%    MPKI:0.00
PC:32630     Total:206      MisBP:0   MisRate:0.00%    MPKI:0.00
PC:301ac     Total:372      MisBP:0   MisRate:0.00%    MPKI:0.00
PC:1b936     Total:141      MisBP:0   MisRate:0.00%    MPKI:0.00
PC:3262e     Total:206      MisBP:0   MisRate:0.00%    MPKI:0.00
PC:9907c     Total:44      MisBP:0   MisRate:0.00%    MPKI:0.00
PC:7951a     Total:188      MisBP:0   MisRate:0.00%    MPKI:0.00
PC:3262c     Total:206      MisBP:0   MisRate:0.00%    MPKI:0.00
PC:9907a     Total:44      MisBP:0   MisRate:0.00%    MPKI:0.00
PC:32628     Total:160      MisBP:0   MisRate:0.00%    MPKI:0.00
PC:32624     Total:160      MisBP:0   MisRate:0.00%    MPKI:0.00
PC:99072     Total:44      MisBP:0   MisRate:0.00%    MPKI:0.00
PC:32550     Total:186      MisBP:0   MisRate:0.00%    MPKI:0.00
PC:3c79c     Total:403      MisBP:0   MisRate:0.00%    MPKI:0.00
PC:7a0fe     Total:2      MisBP:0   MisRate:0.00%    MPKI:0.00
PC:3257a     Total:232      MisBP:0   MisRate:0.00%    MPKI:0.00
PC:98fc8     Total:287      MisBP:0   MisRate:0.00%    MPKI:0.00
PC:5ffe2     Total:23      MisBP:0   MisRate:0.00%    MPKI:0.00
PC:36ef6     Total:23776      MisBP:0   MisRate:0.00%    MPKI:0.00
PC:2d538     Total:8031      MisBP:0   MisRate:0.00%    MPKI:0.00
PC:41dae     Total:914      MisBP:0   MisRate:0.00%    MPKI:0.00
PC:16c64     Total:3106      MisBP:0   MisRate:0.00%    MPKI:0.00
PC:3c78e     Total:625      MisBP:0   MisRate:0.00%    MPKI:0.00
PC:3256c     Total:181      MisBP:0   MisRate:0.00%    MPKI:0.00
PC:3c780     Total:625      MisBP:0   MisRate:0.00%    MPKI:0.00
PC:3255e     Total:182      MisBP:0   MisRate:0.00%    MPKI:0.00
PC:2fd92     Total:4816      MisBP:0   MisRate:0.00%    MPKI:0.00
PC:18cd6     Total:86400      MisBP:0   MisRate:0.00%    MPKI:0.00
PC:98f9e     Total:29      MisBP:0   MisRate:0.00%    MPKI:0.00
PC:2919e     Total:2088      MisBP:0   MisRate:0.00%    MPKI:0.00
PC:3da14     Total:1      MisBP:0   MisRate:0.00%    MPKI:0.00
PC:47804     Total:9951      MisBP:0   MisRate:0.00%    MPKI:0.00
PC:999dc     Total:6      MisBP:0   MisRate:0.00%    MPKI:0.00
PC:1f792     Total:16124      MisBP:0   MisRate:0.00%    MPKI:0.00
PC:15570     Total:40498      MisBP:0   MisRate:0.00%    MPKI:0.00
PC:336f8     Total:276      MisBP:0   MisRate:0.00%    MPKI:0.00
PC:47f6e     Total:4258      MisBP:0   MisRate:0.00%    MPKI:0.00
PC:1f78e     Total:16076      MisBP:0   MisRate:0.00%    MPKI:0.00
PC:1556c     Total:40542      MisBP:0   MisRate:0.00%    MPKI:0.00
PC:47d0c     Total:19      MisBP:0   MisRate:0.00%    MPKI:0.00
PC:33496     Total:162      MisBP:0   MisRate:0.00%    MPKI:0.00
PC:15a78     Total:25975      MisBP:0   MisRate:0.00%    MPKI:0.00
PC:2d55c     Total:1362      MisBP:0   MisRate:0.00%    MPKI:0.00
PC:60132     Total:10      MisBP:0   MisRate:0.00%    MPKI:0.00
PC:19244     Total:12591      MisBP:0   MisRate:0.00%    MPKI:0.00
PC:1bcf0     Total:1043      MisBP:0   MisRate:0.00%    MPKI:0.00
PC:325b6     Total:267      MisBP:0   MisRate:0.00%    MPKI:0.00
PC:99004     Total:27      MisBP:0   MisRate:0.00%    MPKI:0.00
PC:1bce6     Total:1269      MisBP:0   MisRate:0.00%    MPKI:0.00
PC:60014     Total:11      MisBP:0   MisRate:0.00%    MPKI:0.00
PC:36f28     Total:711      MisBP:0   MisRate:0.00%    MPKI:0.00
PC:2d56a     Total:104734      MisBP:0   MisRate:0.00%    MPKI:0.00
PC:41de0     Total:1058      MisBP:0   MisRate:0.00%    MPKI:0.00
PC:18cf4     Total:16205      MisBP:0   MisRate:0.00%    MPKI:0.00
PC:98fec     Total:39      MisBP:0   MisRate:0.00%    MPKI:0.00
PC:60006     Total:9      MisBP:0   MisRate:0.00%    MPKI:0.00
PC:36f1a     Total:10631      MisBP:0   MisRate:0.00%    MPKI:0.00
PC:3eb64     Total:459      MisBP:0   MisRate:0.00%    MPKI:0.00
PC:41dd2     Total:945      MisBP:0   MisRate:0.00%    MPKI:0.00
PC:2fdd8     Total:1752      MisBP:0   MisRate:0.00%    MPKI:0.00
PC:1b562     Total:9954      MisBP:0   MisRate:0.00%    MPKI:0.00
PC:1bcd0     Total:1272      MisBP:0   MisRate:0.00%    MPKI:0.00
PC:32596     Total:55      MisBP:0   MisRate:0.00%    MPKI:0.00
PC:98fe4     Total:285      MisBP:0   MisRate:0.00%    MPKI:0.00
PC:2fdd0     Total:1012      MisBP:0   MisRate:0.00%    MPKI:0.00
PC:16c86     Total:1457      MisBP:0   MisRate:0.00%    MPKI:0.00
PC:3fd72     Total:175      MisBP:0   MisRate:0.00%    MPKI:0.00
PC:3258e     Total:172      MisBP:0   MisRate:0.00%    MPKI:0.00
PC:98fdc     Total:285      MisBP:0   MisRate:0.00%    MPKI:0.00
PC:36f0a     Total:14572      MisBP:0   MisRate:0.00%    MPKI:0.00
PC:2d54c     Total:1468      MisBP:0   MisRate:0.00%    MPKI:0.00
PC:41dc2     Total:1389      MisBP:0   MisRate:0.00%    MPKI:0.00
PC:1aed6     Total:6790      MisBP:0   MisRate:0.00%    MPKI:0.00
PC:3daae     Total:1889      MisBP:0   MisRate:0.00%    MPKI:0.00
PC:47cd0     Total:47      MisBP:0   MisRate:0.00%    MPKI:0.00
PC:3345a     Total:185      MisBP:0   MisRate:0.00%    MPKI:0.00
PC:1a742     Total:164      MisBP:0   MisRate:0.00%    MPKI:0.00
PC:2eb86     Total:1037      MisBP:0   MisRate:0.00%    MPKI:0.00
PC:3387c     Total:81      MisBP:0   MisRate:0.00%    MPKI:0.00
PC:47cc0     Total:47      MisBP:0   MisRate:0.00%    MPKI:0.00
PC:3344a     Total:170      MisBP:0   MisRate:0.00%    MPKI:0.00
PC:5cd4c     Total:5      MisBP:0   MisRate:0.00%    MPKI:0.00
PC:995e6     Total:2      MisBP:0   MisRate:0.00%    MPKI:0.00
PC:15a2c     Total:30343      MisBP:0   MisRate:0.00%    MPKI:0.00
PC:2eb76     Total:1613      MisBP:0   MisRate:0.00%    MPKI:0.00
PC:1aef2     Total:2966      MisBP:0   MisRate:0.00%    MPKI:0.00
PC:2f768     Total:24      MisBP:0   MisRate:0.00%    MPKI:0.00
PC:3daba     Total:1861      MisBP:0   MisRate:0.00%    MPKI:0.00
PC:1aeca     Total:6790      MisBP:0   MisRate:0.00%    MPKI:0.00
PC:2f740     Total:380      MisBP:0   MisRate:0.00%    MPKI:0.00
PC:2e0e2     Total:1142      MisBP:0   MisRate:0.00%    MPKI:0.00
PC:51928     Total:2      MisBP:0   MisRate:0.00%    MPKI:0.00
PC:290a0     Total:530      MisBP:0   MisRate:0.00%    MPKI:0.00
PC:512a0     Total:823498      MisBP:0   MisRate:0.00%    MPKI:0.00
PC:7f1e2     Total:214      MisBP:0   MisRate:0.00%    MPKI:0.00
PC:41880     Total:2      MisBP:0   MisRate:0.00%    MPKI:0.00
PC:18794     Total:109      MisBP:0   MisRate:0.00%    MPKI:0.00
PC:2e0d2     Total:1149      MisBP:0   MisRate:0.00%    MPKI:0.00
PC:332b2     Total:36      MisBP:0   MisRate:0.00%    MPKI:0.00
PC:47b28     Total:37789      MisBP:0   MisRate:0.00%    MPKI:0.00
PC:29090     Total:530      MisBP:0   MisRate:0.00%    MPKI:0.00
PC:7f1d8     Total:1378      MisBP:0   MisRate:0.00%    MPKI:0.00
PC:338a8     Total:23      MisBP:0   MisRate:0.00%    MPKI:0.00
PC:47d08     Total:19      MisBP:0   MisRate:0.00%    MPKI:0.00
PC:47d04     Total:42      MisBP:0   MisRate:0.00%    MPKI:0.00
PC:338bc     Total:1      MisBP:0   MisRate:0.00%    MPKI:0.00
PC:47d00     Total:42      MisBP:0   MisRate:0.00%    MPKI:0.00
PC:338b8     Total:1      MisBP:0   MisRate:0.00%    MPKI:0.00
PC:47cfc     Total:44      MisBP:0   MisRate:0.00%    MPKI:0.00
PC:33486     Total:162      MisBP:0   MisRate:0.00%    MPKI:0.00
PC:48512     Total:214      MisBP:0   MisRate:0.00%    MPKI:0.00
PC:5cd88     Total:55      MisBP:0   MisRate:0.00%    MPKI:0.00
PC:15a68     Total:26240      MisBP:0   MisRate:0.00%    MPKI:0.00
PC:3eb54     Total:446      MisBP:0   MisRate:0.00%    MPKI:0.00
PC:338b0     Total:1      MisBP:0   MisRate:0.00%    MPKI:0.00
PC:47cf4     Total:44      MisBP:0   MisRate:0.00%    MPKI:0.00
PC:3347e     Total:169      MisBP:0   MisRate:0.00%    MPKI:0.00
PC:99118     Total:8      MisBP:0   MisRate:0.00%    MPKI:0.00
PC:47cec     Total:44      MisBP:0   MisRate:0.00%    MPKI:0.00
PC:33476     Total:169      MisBP:0   MisRate:0.00%    MPKI:0.00
PC:48502     Total:449      MisBP:0   MisRate:0.00%    MPKI:0.00
PC:15a58     Total:26253      MisBP:0   MisRate:0.00%    MPKI:0.00
PC:3eb44     Total:89      MisBP:0   MisRate:0.00%    MPKI:0.00
PC:2eba2     Total:1451      MisBP:0   MisRate:0.00%    MPKI:0.00
PC:338a4     Total:23      MisBP:0   MisRate:0.00%    MPKI:0.00
PC:47ce8     Total:47      MisBP:0   MisRate:0.00%    MPKI:0.00
PC:33472     Total:169      MisBP:0   MisRate:0.00%    MPKI:0.00
PC:15a50     Total:27074      MisBP:0   MisRate:0.00%    MPKI:0.00
PC:3eb3c     Total:4      MisBP:0   MisRate:0.00%    MPKI:0.00
PC:3389c     Total:102      MisBP:0   MisRate:0.00%    MPKI:0.00
PC:47ce0     Total:47      MisBP:0   MisRate:0.00%    MPKI:0.00
PC:3346a     Total:169      MisBP:0   MisRate:0.00%    MPKI:0.00
PC:16ddc     Total:1176      MisBP:0   MisRate:0.00%    MPKI:0.00
PC:326ec     Total:5      MisBP:0   MisRate:0.00%    MPKI:0.00
PC:9913a     Total:8      MisBP:0   MisRate:0.00%    MPKI:0.00
PC:2d6aa     Total:111527      MisBP:0   MisRate:0.00%    MPKI:0.00
PC:18e34     Total:42583      MisBP:0   MisRate:0.00%    MPKI:0.00
PC:795d8     Total:122      MisBP:0   MisRate:0.00%    MPKI:0.00
PC:326ea     Total:5      MisBP:0   MisRate:0.00%    MPKI:0.00
PC:1a91a     Total:216731      MisBP:0   MisRate:0.00%    MPKI:0.00
PC:9e4d4     Total:36541      MisBP:0   MisRate:0.00%    MPKI:0.00
PC:795d4     Total:149      MisBP:0   MisRate:0.00%    MPKI:0.00
PC:326e6     Total:5      MisBP:0   MisRate:0.00%    MPKI:0.00
PC:6014e     Total:6      MisBP:0   MisRate:0.00%    MPKI:0.00
PC:19260     Total:22545      MisBP:0   MisRate:0.00%    MPKI:0.00
PC:2d6a4     Total:113295      MisBP:0   MisRate:0.00%    MPKI:0.00
PC:18e2e     Total:86260      MisBP:0   MisRate:0.00%    MPKI:0.00
PC:795da     Total:390      MisBP:0   MisRate:0.00%    MPKI:0.00
PC:3fec8     Total:5492      MisBP:0   MisRate:0.00%    MPKI:0.00
PC:326e4     Total:5      MisBP:0   MisRate:0.00%    MPKI:0.00
PC:99132     Total:8      MisBP:0   MisRate:0.00%    MPKI:0.00
PC:2ff24     Total:32522      MisBP:0   MisRate:0.00%    MPKI:0.00
PC:16dda     Total:1176      MisBP:0   MisRate:0.00%    MPKI:0.00
PC:3fec6     Total:5492      MisBP:0   MisRate:0.00%    MPKI:0.00
PC:795d0     Total:205      MisBP:0   MisRate:0.00%    MPKI:0.00
PC:326e2     Total:5      MisBP:0   MisRate:0.00%    MPKI:0.00
PC:99130     Total:8      MisBP:0   MisRate:0.00%    MPKI:0.00
PC:2d6a0     Total:226590      MisBP:0   MisRate:0.00%    MPKI:0.00
PC:18e2a     Total:12511      MisBP:0   MisRate:0.00%    MPKI:0.00
PC:795ce     Total:206      MisBP:0   MisRate:0.00%    MPKI:0.00
PC:326e0     Total:5      MisBP:0   MisRate:0.00%    MPKI:0.00
PC:9912e     Total:8      MisBP:0   MisRate:0.00%    MPKI:0.00
PC:326f2     Total:4      MisBP:0   MisRate:0.00%    MPKI:0.00
PC:326fa     Total:4      MisBP:0   MisRate:0.00%    MPKI:0.00
PC:2d6b8     Total:99785      MisBP:0   MisRate:0.00%    MPKI:0.00
PC:18e42     Total:3514      MisBP:0   MisRate:0.00%    MPKI:0.00
PC:2ff3a     Total:180      MisBP:0   MisRate:0.00%    MPKI:0.00
PC:795e6     Total:15      MisBP:0   MisRate:0.00%    MPKI:0.00
PC:326f8     Total:4      MisBP:0   MisRate:0.00%    MPKI:0.00
PC:99146     Total:2      MisBP:0   MisRate:0.00%    MPKI:0.00
PC:16dee     Total:1175      MisBP:0   MisRate:0.00%    MPKI:0.00
PC:3feda     Total:10940      MisBP:0   MisRate:0.00%    MPKI:0.00
PC:795e4     Total:15      MisBP:0   MisRate:0.00%    MPKI:0.00
PC:326f6     Total:4      MisBP:0   MisRate:0.00%    MPKI:0.00
PC:99144     Total:2      MisBP:0   MisRate:0.00%    MPKI:0.00
PC:2d6b4     Total:109773      MisBP:0   MisRate:0.00%    MPKI:0.00
PC:18e3e     Total:3514      MisBP:0   MisRate:0.00%    MPKI:0.00
PC:16dd4     Total:1179      MisBP:0   MisRate:0.00%    MPKI:0.00
PC:2ff32     Total:2010      MisBP:0   MisRate:0.00%    MPKI:0.00
PC:795de     Total:69      MisBP:0   MisRate:0.00%    MPKI:0.00
PC:326f0     Total:4      MisBP:0   MisRate:0.00%    MPKI:0.00
PC:9913e     Total:2      MisBP:0   MisRate:0.00%    MPKI:0.00
PC:2d6ae     Total:111523      MisBP:0   MisRate:0.00%    MPKI:0.00
PC:9f00c     Total:326      MisBP:0   MisRate:0.00%    MPKI:0.00
PC:1c916     Total:18201      MisBP:0   MisRate:0.00%    MPKI:0.00
PC:2ff30     Total:2016      MisBP:0   MisRate:0.00%    MPKI:0.00
PC:16de6     Total:1175      MisBP:0   MisRate:0.00%    MPKI:0.00
PC:3fed2     Total:5422      MisBP:0   MisRate:0.00%    MPKI:0.00
PC:795dc     Total:69      MisBP:0   MisRate:0.00%    MPKI:0.00
PC:326ee     Total:5      MisBP:0   MisRate:0.00%    MPKI:0.00
PC:16de4     Total:1175      MisBP:0   MisRate:0.00%    MPKI:0.00
PC:3fed0     Total:5490      MisBP:0   MisRate:0.00%    MPKI:0.00
PC:3feb2     Total:1222      MisBP:0   MisRate:0.00%    MPKI:0.00
PC:3feb6     Total:1053      MisBP:0   MisRate:0.00%    MPKI:0.00
PC:795c0     Total:206      MisBP:0   MisRate:0.00%    MPKI:0.00
PC:326d2     Total:20      MisBP:0   MisRate:0.00%    MPKI:0.00
PC:6013a     Total:10      MisBP:0   MisRate:0.00%    MPKI:0.00
PC:3704e     Total:4      MisBP:0   MisRate:0.00%    MPKI:0.00
PC:1924c     Total:12591      MisBP:0   MisRate:0.00%    MPKI:0.00
PC:2d690     Total:28481      MisBP:0   MisRate:0.00%    MPKI:0.00
PC:18e1a     Total:12722      MisBP:0   MisRate:0.00%    MPKI:0.00
PC:326d0     Total:20      MisBP:0   MisRate:0.00%    MPKI:0.00
PC:9911e     Total:8      MisBP:0   MisRate:0.00%    MPKI:0.00
PC:2ff10     Total:65134      MisBP:0   MisRate:0.00%    MPKI:0.00
PC:3f64e     Total:8921      MisBP:0   MisRate:0.00%    MPKI:0.00
PC:16562     Total:16158      MisBP:0   MisRate:0.00%    MPKI:0.00
PC:16dc6     Total:1179      MisBP:0   MisRate:0.00%    MPKI:0.00
PC:16dca     Total:1179      MisBP:0   MisRate:0.00%    MPKI:0.00
PC:795bc     Total:209      MisBP:0   MisRate:0.00%    MPKI:0.00
PC:326ce     Total:20      MisBP:0   MisRate:0.00%    MPKI:0.00
PC:9911c     Total:8      MisBP:0   MisRate:0.00%    MPKI:0.00
PC:60136     Total:10      MisBP:0   MisRate:0.00%    MPKI:0.00
PC:3704a     Total:4      MisBP:0   MisRate:0.00%    MPKI:0.00
PC:19248     Total:12591      MisBP:0   MisRate:0.00%    MPKI:0.00
PC:42334     Total:102      MisBP:0   MisRate:0.00%    MPKI:0.00
PC:2d68c     Total:364      MisBP:0   MisRate:0.00%    MPKI:0.00
PC:326cc     Total:20      MisBP:0   MisRate:0.00%    MPKI:0.00
PC:2d68a     Total:364      MisBP:0   MisRate:0.00%    MPKI:0.00
PC:18e14     Total:12722      MisBP:0   MisRate:0.00%    MPKI:0.00
PC:2ff0c     Total:3933      MisBP:0   MisRate:0.00%    MPKI:0.00
PC:795b8     Total:209      MisBP:0   MisRate:0.00%    MPKI:0.00
PC:326ca     Total:20      MisBP:0   MisRate:0.00%    MPKI:0.00
PC:37052     Total:3      MisBP:0   MisRate:0.00%    MPKI:0.00
PC:3fec0     Total:5492      MisBP:0   MisRate:0.00%    MPKI:0.00
PC:9912a     Total:8      MisBP:0   MisRate:0.00%    MPKI:0.00
PC:2ff1c     Total:30810      MisBP:0   MisRate:0.00%    MPKI:0.00
PC:795c8     Total:206      MisBP:0   MisRate:0.00%    MPKI:0.00
PC:326da     Total:52      MisBP:0   MisRate:0.00%    MPKI:0.00
PC:60142     Total:13      MisBP:0   MisRate:0.00%    MPKI:0.00
PC:37056     Total:3      MisBP:0   MisRate:0.00%    MPKI:0.00
PC:19254     Total:12591      MisBP:0   MisRate:0.00%    MPKI:0.00
PC:42340     Total:4      MisBP:0   MisRate:0.00%    MPKI:0.00
PC:2d698     Total:28457      MisBP:0   MisRate:0.00%    MPKI:0.00
PC:2ff18     Total:32411      MisBP:0   MisRate:0.00%    MPKI:0.00
PC:326d6     Total:20      MisBP:0   MisRate:0.00%    MPKI:0.00
PC:99124     Total:8      MisBP:0   MisRate:0.00%    MPKI:0.00
PC:6013e     Total:10      MisBP:0   MisRate:0.00%    MPKI:0.00
PC:7b1fc     Total:425      MisBP:0   MisRate:0.00%    MPKI:0.00
PC:19250     Total:12591      MisBP:0   MisRate:0.00%    MPKI:0.00
PC:2d694     Total:28457      MisBP:0   MisRate:0.00%    MPKI:0.00
PC:18e1e     Total:12611      MisBP:0   MisRate:0.00%    MPKI:0.00
PC:2ff16     Total:32411      MisBP:0   MisRate:0.00%    MPKI:0.00
PC:16dcc     Total:2358      MisBP:0   MisRate:0.00%    MPKI:0.00
PC:3feb8     Total:1053      MisBP:0   MisRate:0.00%    MPKI:0.00
PC:795c2     Total:206      MisBP:0   MisRate:0.00%    MPKI:0.00
PC:326d4     Total:20      MisBP:0   MisRate:0.00%    MPKI:0.00
PC:99122     Total:8      MisBP:0   MisRate:0.00%    MPKI:0.00
PC:6013c     Total:10      MisBP:0   MisRate:0.00%    MPKI:0.00
PC:2d692     Total:28481      MisBP:0   MisRate:0.00%    MPKI:0.00
PC:2ff14     Total:32566      MisBP:0   MisRate:0.00%    MPKI:0.00
PC:9e4c0     Total:39175      MisBP:0   MisRate:0.00%    MPKI:0.00
PC:1f86a     Total:20114      MisBP:0   MisRate:0.00%    MPKI:0.00
PC:15846     Total:15506      MisBP:0   MisRate:0.00%    MPKI:0.00
PC:3e932     Total:4831      MisBP:0   MisRate:0.00%    MPKI:0.00
PC:42a80     Total:3550      MisBP:0   MisRate:0.00%    MPKI:0.00
PC:2e20a     Total:1378      MisBP:0   MisRate:0.00%    MPKI:0.00
PC:19994     Total:7841      MisBP:0   MisRate:0.00%    MPKI:0.00
PC:478ec     Total:133      MisBP:0   MisRate:0.00%    MPKI:0.00
PC:15658     Total:42672      MisBP:0   MisRate:0.00%    MPKI:0.00
PC:14e3c     Total:15623      MisBP:0   MisRate:0.00%    MPKI:0.00
PC:334a2     Total:162      MisBP:0   MisRate:0.00%    MPKI:0.00
PC:478e6     Total:132      MisBP:0   MisRate:0.00%    MPKI:0.00
PC:14e38     Total:15624      MisBP:0   MisRate:0.00%    MPKI:0.00
PC:1f870     Total:19212      MisBP:0   MisRate:0.00%    MPKI:0.00
PC:1564e     Total:43141      MisBP:0   MisRate:0.00%    MPKI:0.00
PC:3e73a     Total:12290      MisBP:0   MisRate:0.00%    MPKI:0.00
PC:48b54     Total:9      MisBP:0   MisRate:0.00%    MPKI:0.00
PC:15648     Total:43141      MisBP:0   MisRate:0.00%    MPKI:0.00
PC:7c096     Total:3      MisBP:0   MisRate:0.00%    MPKI:0.00
PC:410c4     Total:12424      MisBP:0   MisRate:0.00%    MPKI:0.00
PC:17fd8     Total:65790      MisBP:0   MisRate:0.00%    MPKI:0.00
PC:1883c     Total:8378      MisBP:0   MisRate:0.00%    MPKI:0.00
PC:41928     Total:332      MisBP:0   MisRate:0.00%    MPKI:0.00
PC:31986     Total:248071      MisBP:0   MisRate:0.00%    MPKI:0.00
PC:7a5fc     Total:138      MisBP:0   MisRate:0.00%    MPKI:0.00
PC:3cc9a     Total:77      MisBP:0   MisRate:0.00%    MPKI:0.00
PC:47b52     Total:110383      MisBP:0   MisRate:0.00%    MPKI:0.00
PC:99d2a     Total:389      MisBP:0   MisRate:0.00%    MPKI:0.00
PC:2e6cc     Total:57      MisBP:0   MisRate:0.00%    MPKI:0.00
PC:42b10     Total:512      MisBP:0   MisRate:0.00%    MPKI:0.00
PC:2e29a     Total:6773      MisBP:0   MisRate:0.00%    MPKI:0.00
PC:2e22a     Total:1313      MisBP:0   MisRate:0.00%    MPKI:0.00
PC:42aa8     Total:4184      MisBP:0   MisRate:0.00%    MPKI:0.00
PC:2e232     Total:1313      MisBP:0   MisRate:0.00%    MPKI:0.00
PC:199bc     Total:7676      MisBP:0   MisRate:0.00%    MPKI:0.00
PC:48300     Total:76      MisBP:0   MisRate:0.00%    MPKI:0.00
PC:1fa78     Total:3849      MisBP:0   MisRate:0.00%    MPKI:0.00
PC:15856     Total:15506      MisBP:0   MisRate:0.00%    MPKI:0.00
PC:47ae6     Total:126771      MisBP:0   MisRate:0.00%    MPKI:0.00
PC:2e660     Total:105      MisBP:0   MisRate:0.00%    MPKI:0.00
PC:42aa4     Total:1373      MisBP:0   MisRate:0.00%    MPKI:0.00
PC:2e22e     Total:1313      MisBP:0   MisRate:0.00%    MPKI:0.00
PC:15852     Total:15506      MisBP:0   MisRate:0.00%    MPKI:0.00
PC:3e93e     Total:4722      MisBP:0   MisRate:0.00%    MPKI:0.00
PC:2e65c     Total:105      MisBP:0   MisRate:0.00%    MPKI:0.00
PC:42aa0     Total:5452      MisBP:0   MisRate:0.00%    MPKI:0.00
PC:19a24     Total:9429      MisBP:0   MisRate:0.00%    MPKI:0.00
PC:199b4     Total:7676      MisBP:0   MisRate:0.00%    MPKI:0.00
PC:2e658     Total:105      MisBP:0   MisRate:0.00%    MPKI:0.00
PC:42a9c     Total:5452      MisBP:0   MisRate:0.00%    MPKI:0.00
PC:2e226     Total:1336      MisBP:0   MisRate:0.00%    MPKI:0.00
PC:199b0     Total:7676      MisBP:0   MisRate:0.00%    MPKI:0.00
PC:482f4     Total:139      MisBP:0   MisRate:0.00%    MPKI:0.00
PC:33a7e     Total:89      MisBP:0   MisRate:0.00%    MPKI:0.00
PC:1fa6c     Total:4035      MisBP:0   MisRate:0.00%    MPKI:0.00
PC:48b58     Total:9      MisBP:0   MisRate:0.00%    MPKI:0.00
PC:1584a     Total:15506      MisBP:0   MisRate:0.00%    MPKI:0.00
PC:3e936     Total:4831      MisBP:0   MisRate:0.00%    MPKI:0.00
PC:42a9a     Total:5467      MisBP:0   MisRate:0.00%    MPKI:0.00
PC:199ae     Total:7676      MisBP:0   MisRate:0.00%    MPKI:0.00
PC:1fa68     Total:4035      MisBP:0   MisRate:0.00%    MPKI:0.00
PC:3e998     Total:4055      MisBP:0   MisRate:0.00%    MPKI:0.00
PC:33ae2     Total:193      MisBP:0   MisRate:0.00%    MPKI:0.00
PC:158ae     Total:10806      MisBP:0   MisRate:0.00%    MPKI:0.00
PC:3e99a     Total:4055      MisBP:0   MisRate:0.00%    MPKI:0.00
PC:31972     Total:441      MisBP:0   MisRate:0.00%    MPKI:0.00
PC:336fc     Total:276      MisBP:0   MisRate:0.00%    MPKI:0.00
PC:47f72     Total:4258      MisBP:0   MisRate:0.00%    MPKI:0.00
PC:332ca     Total:70      MisBP:0   MisRate:0.00%    MPKI:0.00
PC:99d18     Total:231      MisBP:0   MisRate:0.00%    MPKI:0.00
PC:42afe     Total:232      MisBP:0   MisRate:0.00%    MPKI:0.00
PC:48356     Total:13      MisBP:0   MisRate:0.00%    MPKI:0.00
PC:33ae0     Total:193      MisBP:0   MisRate:0.00%    MPKI:0.00
PC:1face     Total:6144      MisBP:0   MisRate:0.00%    MPKI:0.00
PC:48bba     Total:13      MisBP:0   MisRate:0.00%    MPKI:0.00
PC:158ac     Total:10806      MisBP:0   MisRate:0.00%    MPKI:0.00
PC:48358     Total:13      MisBP:0   MisRate:0.00%    MPKI:0.00
PC:31970     Total:441      MisBP:0   MisRate:0.00%    MPKI:0.00
PC:42afc     Total:289      MisBP:0   MisRate:0.00%    MPKI:0.00
PC:2e286     Total:5670      MisBP:0   MisRate:0.00%    MPKI:0.00
PC:19a10     Total:9775      MisBP:0   MisRate:0.00%    MPKI:0.00
PC:410ac     Total:18798      MisBP:0   MisRate:0.00%    MPKI:0.00
PC:17fc0     Total:35712      MisBP:0   MisRate:0.00%    MPKI:0.00
PC:18824     Total:69126      MisBP:0   MisRate:0.00%    MPKI:0.00
PC:3196e     Total:520      MisBP:0   MisRate:0.00%    MPKI:0.00
PC:47b3a     Total:35170      MisBP:0   MisRate:0.00%    MPKI:0.00
PC:99d12     Total:231      MisBP:0   MisRate:0.00%    MPKI:0.00
PC:42af8     Total:289      MisBP:0   MisRate:0.00%    MPKI:0.00
PC:19a0c     Total:9775      MisBP:0   MisRate:0.00%    MPKI:0.00
PC:48350     Total:174      MisBP:0   MisRate:0.00%    MPKI:0.00
PC:33ada     Total:193      MisBP:0   MisRate:0.00%    MPKI:0.00
PC:47f7a     Total:4256      MisBP:0   MisRate:0.00%    MPKI:0.00
PC:42e4c     Total:47      MisBP:0   MisRate:0.00%    MPKI:0.00
PC:2e5d6     Total:74      MisBP:0   MisRate:0.00%    MPKI:0.00
PC:614b2     Total:322      MisBP:0   MisRate:0.00%    MPKI:0.00
PC:9ee14     Total:36186      MisBP:0   MisRate:0.00%    MPKI:0.00
PC:2ea08     Total:156      MisBP:0   MisRate:0.00%    MPKI:0.00
PC:7a5f8     Total:138      MisBP:0   MisRate:0.00%    MPKI:0.00
PC:3cc96     Total:77      MisBP:0   MisRate:0.00%    MPKI:0.00
PC:47b4e     Total:110047      MisBP:0   MisRate:0.00%    MPKI:0.00
PC:332d8     Total:183      MisBP:0   MisRate:0.00%    MPKI:0.00
PC:2e296     Total:4315      MisBP:0   MisRate:0.00%    MPKI:0.00
PC:19a20     Total:9429      MisBP:0   MisRate:0.00%    MPKI:0.00
PC:3197e     Total:6529      MisBP:0   MisRate:0.00%    MPKI:0.00
PC:3197a     Total:6529      MisBP:0   MisRate:0.00%    MPKI:0.00
PC:33704     Total:117      MisBP:0   MisRate:0.00%    MPKI:0.00
PC:2e664     Total:105      MisBP:0   MisRate:0.00%    MPKI:0.00
PC:31978     Total:6220      MisBP:0   MisRate:0.00%    MPKI:0.00
PC:17fc8     Total:68743      MisBP:0   MisRate:0.00%    MPKI:0.00
PC:1882c     Total:67684      MisBP:0   MisRate:0.00%    MPKI:0.00
PC:41918     Total:322      MisBP:0   MisRate:0.00%    MPKI:0.00
PC:31976     Total:6045      MisBP:0   MisRate:0.00%    MPKI:0.00
PC:33700     Total:117      MisBP:0   MisRate:0.00%    MPKI:0.00
PC:47f76     Total:4256      MisBP:0   MisRate:0.00%    MPKI:0.00
PC:99d1c     Total:231      MisBP:0   MisRate:0.00%    MPKI:0.00
PC:332ce     Total:70      MisBP:0   MisRate:0.00%    MPKI:0.00
PC:42b02     Total:285      MisBP:0   MisRate:0.00%    MPKI:0.00
PC:4835a     Total:13      MisBP:0   MisRate:0.00%    MPKI:0.00
PC:33ae4     Total:193      MisBP:0   MisRate:0.00%    MPKI:0.00
PC:158b0     Total:10804      MisBP:0   MisRate:0.00%    MPKI:0.00
PC:3e99c     Total:4055      MisBP:0   MisRate:0.00%    MPKI:0.00
PC:2ed46     Total:127      MisBP:0   MisRate:0.00%    MPKI:0.00
PC:2f4ca     Total:136      MisBP:0   MisRate:0.00%    MPKI:0.00
PC:98fb6     Total:266      MisBP:0   MisRate:0.00%    MPKI:0.00
PC:47ea6     Total:4551      MisBP:0   MisRate:0.00%    MPKI:0.00
PC:24cd8     Total:61585      MisBP:0   MisRate:0.00%    MPKI:0.00
PC:15c12     Total:1676      MisBP:0   MisRate:0.00%    MPKI:0.00
PC:3ecfe     Total:5344      MisBP:0   MisRate:0.00%    MPKI:0.00
PC:2ed5c     Total:35      MisBP:0   MisRate:0.00%    MPKI:0.00
PC:1ac48     Total:73284      MisBP:0   MisRate:0.00%    MPKI:0.00
PC:2f4be     Total:136      MisBP:0   MisRate:0.00%    MPKI:0.00
PC:98faa     Total:29      MisBP:0   MisRate:0.00%    MPKI:0.00
PC:3255c     Total:186      MisBP:0   MisRate:0.00%    MPKI:0.00
PC:47e9a     Total:4551      MisBP:0   MisRate:0.00%    MPKI:0.00
PC:33624     Total:10      MisBP:0   MisRate:0.00%    MPKI:0.00
PC:1a902     Total:51856      MisBP:0   MisRate:0.00%    MPKI:0.00
PC:1ac54     Total:5062      MisBP:0   MisRate:0.00%    MPKI:0.00
PC:1ac20     Total:855352      MisBP:0   MisRate:0.00%    MPKI:0.00
PC:2f496     Total:324      MisBP:0   MisRate:0.00%    MPKI:0.00
PC:47e72     Total:5187      MisBP:0   MisRate:0.00%    MPKI:0.00
PC:335fc     Total:460      MisBP:0   MisRate:0.00%    MPKI:0.00
PC:15bde     Total:675      MisBP:0   MisRate:0.00%    MPKI:0.00
PC:3ecca     Total:2104      MisBP:0   MisRate:0.00%    MPKI:0.00
PC:1a8e4     Total:57046      MisBP:0   MisRate:0.00%    MPKI:0.00
PC:2ed28     Total:291      MisBP:0   MisRate:0.00%    MPKI:0.00
PC:1a4b2     Total:93      MisBP:0   MisRate:0.00%    MPKI:0.00
PC:2e280     Total:5670      MisBP:0   MisRate:0.00%    MPKI:0.00
PC:4834a     Total:62      MisBP:0   MisRate:0.00%    MPKI:0.00
PC:158a0     Total:11317      MisBP:0   MisRate:0.00%    MPKI:0.00
PC:3e98c     Total:1307      MisBP:0   MisRate:0.00%    MPKI:0.00
PC:42aee     Total:3756      MisBP:0   MisRate:0.00%    MPKI:0.00
PC:1ac5c     Total:5062      MisBP:0   MisRate:0.00%    MPKI:0.00
PC:3ed3e     Total:4266      MisBP:0   MisRate:0.00%    MPKI:0.00
PC:61846     Total:154      MisBP:0   MisRate:0.00%    MPKI:0.00
PC:2ed9c     Total:1      MisBP:0   MisRate:0.00%    MPKI:0.00
PC:1a526     Total:374      MisBP:0   MisRate:0.00%    MPKI:0.00
PC:1ac7e     Total:4864      MisBP:0   MisRate:0.00%    MPKI:0.00
PC:24d02     Total:29167      MisBP:0   MisRate:0.00%    MPKI:0.00
PC:9e4fc     Total:574152      MisBP:0   MisRate:0.00%    MPKI:0.00
PC:2ed86     Total:1      MisBP:0   MisRate:0.00%    MPKI:0.00
PC:1a510     Total:816      MisBP:0   MisRate:0.00%    MPKI:0.00
PC:1ac60     Total:5062      MisBP:0   MisRate:0.00%    MPKI:0.00
PC:98fc2     Total:287      MisBP:0   MisRate:0.00%    MPKI:0.00
PC:32574     Total:232      MisBP:0   MisRate:0.00%    MPKI:0.00
PC:1f62a     Total:1443      MisBP:0   MisRate:0.00%    MPKI:0.00
PC:47eb2     Total:4421      MisBP:0   MisRate:0.00%    MPKI:0.00
PC:2e278     Total:6943      MisBP:0   MisRate:0.00%    MPKI:0.00
PC:2f4d2     Total:136      MisBP:0   MisRate:0.00%    MPKI:0.00
PC:33a6a     Total:211      MisBP:0   MisRate:0.00%    MPKI:0.00
PC:98fbe     Total:287      MisBP:0   MisRate:0.00%    MPKI:0.00
PC:32570     Total:233      MisBP:0   MisRate:0.00%    MPKI:0.00
PC:1f626     Total:14726      MisBP:0   MisRate:0.00%    MPKI:0.00
PC:47eae     Total:4421      MisBP:0   MisRate:0.00%    MPKI:0.00
PC:1a920     Total:208890      MisBP:0   MisRate:0.00%    MPKI:0.00
PC:2ed64     Total:35      MisBP:0   MisRate:0.00%    MPKI:0.00
PC:1ac58     Total:5062      MisBP:0   MisRate:0.00%    MPKI:0.00
PC:2f4ce     Total:136      MisBP:0   MisRate:0.00%    MPKI:0.00
PC:47eaa     Total:4421      MisBP:0   MisRate:0.00%    MPKI:0.00
PC:24cdc     Total:61618      MisBP:0   MisRate:0.00%    MPKI:0.00
PC:1a91c     Total:216729      MisBP:0   MisRate:0.00%    MPKI:0.00
PC:2ed60     Total:35      MisBP:0   MisRate:0.00%    MPKI:0.00
PC:2e23e     Total:1196      MisBP:0   MisRate:0.00%    MPKI:0.00
PC:3e95c     Total:2883      MisBP:0   MisRate:0.00%    MPKI:0.00
PC:42ac2     Total:235      MisBP:0   MisRate:0.00%    MPKI:0.00
PC:2e24c     Total:1211      MisBP:0   MisRate:0.00%    MPKI:0.00
PC:2e67c     Total:1      MisBP:0   MisRate:0.00%    MPKI:0.00
PC:42ac0     Total:235      MisBP:0   MisRate:0.00%    MPKI:0.00
PC:2e24a     Total:1211      MisBP:0   MisRate:0.00%    MPKI:0.00
PC:199d4     Total:73940      MisBP:0   MisRate:0.00%    MPKI:0.00
PC:2e672     Total:146      MisBP:0   MisRate:0.00%    MPKI:0.00
PC:19dfc     Total:296      MisBP:0   MisRate:0.00%    MPKI:0.00
PC:42ab6     Total:349      MisBP:0   MisRate:0.00%    MPKI:0.00
PC:199ca     Total:74250      MisBP:0   MisRate:0.00%    MPKI:0.00
PC:15864     Total:15009      MisBP:0   MisRate:0.00%    MPKI:0.00
PC:3e950     Total:2967      MisBP:0   MisRate:0.00%    MPKI:0.00
PC:42ab4     Total:349      MisBP:0   MisRate:0.00%    MPKI:0.00
PC:15870     Total:15021      MisBP:0   MisRate:0.00%    MPKI:0.00
PC:42ab0     Total:4137      MisBP:0   MisRate:0.00%    MPKI:0.00
PC:48308     Total:76      MisBP:0   MisRate:0.00%    MPKI:0.00
PC:1fa80     Total:2885      MisBP:0   MisRate:0.00%    MPKI:0.00
PC:48b6c     Total:5      MisBP:0   MisRate:0.00%    MPKI:0.00
PC:1585e     Total:15018      MisBP:0   MisRate:0.00%    MPKI:0.00
PC:3e94a     Total:2967      MisBP:0   MisRate:0.00%    MPKI:0.00
PC:42aac     Total:4182      MisBP:0   MisRate:0.00%    MPKI:0.00
PC:2e236     Total:1313      MisBP:0   MisRate:0.00%    MPKI:0.00
PC:199c0     Total:7391      MisBP:0   MisRate:0.00%    MPKI:0.00
PC:48304     Total:76      MisBP:0   MisRate:0.00%    MPKI:0.00
PC:1fa7c     Total:3660      MisBP:0   MisRate:0.00%    MPKI:0.00
PC:48b68     Total:5      MisBP:0   MisRate:0.00%    MPKI:0.00
PC:1585a     Total:15018      MisBP:0   MisRate:0.00%    MPKI:0.00
PC:3e946     Total:2958      MisBP:0   MisRate:0.00%    MPKI:0.00
PC:15882     Total:12675      MisBP:0   MisRate:0.00%    MPKI:0.00
PC:48346     Total:62      MisBP:0   MisRate:0.00%    MPKI:0.00
PC:33ad0     Total:197      MisBP:0   MisRate:0.00%    MPKI:0.00
PC:1589c     Total:11330      MisBP:0   MisRate:0.00%    MPKI:0.00
PC:3e988     Total:1307      MisBP:0   MisRate:0.00%    MPKI:0.00
PC:42ade     Total:3763      MisBP:0   MisRate:0.00%    MPKI:0.00
PC:2e268     Total:237354      MisBP:0   MisRate:0.00%    MPKI:0.00
PC:42ada     Total:3763      MisBP:0   MisRate:0.00%    MPKI:0.00
PC:2e264     Total:237354      MisBP:0   MisRate:0.00%    MPKI:0.00
PC:48332     Total:119      MisBP:0   MisRate:0.00%    MPKI:0.00
PC:1faaa     Total:2112      MisBP:0   MisRate:0.00%    MPKI:0.00
PC:48b96     Total:17      MisBP:0   MisRate:0.00%    MPKI:0.00
PC:15888     Total:12673      MisBP:0   MisRate:0.00%    MPKI:0.00
PC:3e974     Total:1287      MisBP:0   MisRate:0.00%    MPKI:0.00
PC:42ad4     Total:222      MisBP:0   MisRate:0.00%    MPKI:0.00
PC:9ad8c     Total:40      MisBP:0   MisRate:0.00%    MPKI:0.00
PC:3e96e     Total:1288      MisBP:0   MisRate:0.00%    MPKI:0.00
PC:42ad0     Total:235      MisBP:0   MisRate:0.00%    MPKI:0.00
PC:2e25a     Total:20608      MisBP:0   MisRate:0.00%    MPKI:0.00
PC:199e4     Total:51406      MisBP:0   MisRate:0.00%    MPKI:0.00
PC:48328     Total:290      MisBP:0   MisRate:0.00%    MPKI:0.00
PC:1faa0     Total:2692      MisBP:0   MisRate:0.00%    MPKI:0.00
PC:48b8c     Total:48      MisBP:0   MisRate:0.00%    MPKI:0.00
PC:1587e     Total:12362      MisBP:0   MisRate:0.00%    MPKI:0.00
PC:3e96a     Total:1289      MisBP:0   MisRate:0.00%    MPKI:0.00
PC:42acc     Total:235      MisBP:0   MisRate:0.00%    MPKI:0.00
PC:2e256     Total:20214      MisBP:0   MisRate:0.00%    MPKI:0.00
PC:199e0     Total:11287      MisBP:0   MisRate:0.00%    MPKI:0.00
PC:4831a     Total:76      MisBP:0   MisRate:0.00%    MPKI:0.00
PC:1fa92     Total:2885      MisBP:0   MisRate:0.00%    MPKI:0.00
PC:325a4     Total:260      MisBP:0   MisRate:0.00%    MPKI:0.00
[...]
PC:15e66     Total:21871      MisBP:4353   MisRate:19.90%    MPKI:0.01
PC:1614c     Total:13080      MisBP:4367   MisRate:33.39%    MPKI:0.01
PC:18df0     Total:27639      MisBP:4375   MisRate:15.83%    MPKI:0.01
PC:15c9c     Total:28427      MisBP:4409   MisRate:15.51%    MPKI:0.01
PC:47d16     Total:12981      MisBP:4434   MisRate:34.16%    MPKI:0.01
PC:19a82     Total:153681      MisBP:4435   MisRate:2.89%    MPKI:0.01
PC:1bdda     Total:39694      MisBP:4460   MisRate:11.24%    MPKI:0.01
PC:190a6     Total:21741      MisBP:4498   MisRate:20.69%    MPKI:0.01
PC:159ce     Total:60352      MisBP:4572   MisRate:7.58%    MPKI:0.01
PC:1ac44     Total:73337      MisBP:4590   MisRate:6.26%    MPKI:0.01
PC:31b3a     Total:365833      MisBP:4604   MisRate:1.26%    MPKI:0.01
PC:47d3a     Total:19235      MisBP:4664   MisRate:24.25%    MPKI:0.02
PC:2ead0     Total:186487      MisBP:4667   MisRate:2.50%    MPKI:0.02
PC:1615e     Total:17642      MisBP:4673   MisRate:26.49%    MPKI:0.02
PC:2fd34     Total:34140      MisBP:4675   MisRate:13.69%    MPKI:0.02
PC:1ae24     Total:42361      MisBP:4678   MisRate:11.04%    MPKI:0.02
PC:24ccc     Total:66339      MisBP:4731   MisRate:7.13%    MPKI:0.02
PC:3036c     Total:37420      MisBP:4747   MisRate:12.69%    MPKI:0.02
PC:1596a     Total:67651      MisBP:4751   MisRate:7.02%    MPKI:0.02
PC:16138     Total:20515      MisBP:4809   MisRate:23.44%    MPKI:0.02
PC:3be8e     Total:24908      MisBP:4831   MisRate:19.40%    MPKI:0.02
PC:3cff0     Total:16937      MisBP:4849   MisRate:28.63%    MPKI:0.02
PC:3c264     Total:55042      MisBP:4866   MisRate:8.84%    MPKI:0.02
PC:3f4d2     Total:14392      MisBP:4887   MisRate:33.96%    MPKI:0.02
PC:3c298     Total:23370      MisBP:4901   MisRate:20.97%    MPKI:0.02
PC:1f71c     Total:32819      MisBP:4934   MisRate:15.03%    MPKI:0.02
PC:2d624     Total:58822      MisBP:5017   MisRate:8.53%    MPKI:0.02
PC:2fff4     Total:34460      MisBP:5047   MisRate:14.65%    MPKI:0.02
PC:2e504     Total:19754      MisBP:5054   MisRate:25.58%    MPKI:0.02
PC:18f26     Total:37544      MisBP:5077   MisRate:13.52%    MPKI:0.02
PC:2e48e     Total:20209      MisBP:5078   MisRate:25.13%    MPKI:0.02
PC:3e748     Total:17652      MisBP:5092   MisRate:28.85%    MPKI:0.02
PC:3cb1a     Total:21737      MisBP:5116   MisRate:23.54%    MPKI:0.02
PC:2e276     Total:248620      MisBP:5143   MisRate:2.07%    MPKI:0.02
PC:1f84a     Total:32617      MisBP:5167   MisRate:15.84%    MPKI:0.02
PC:18e00     Total:88384      MisBP:5176   MisRate:5.86%    MPKI:0.02
PC:18bec     Total:338906      MisBP:5215   MisRate:1.54%    MPKI:0.02
PC:2ca44     Total:154273      MisBP:5331   MisRate:3.46%    MPKI:0.02
PC:16198     Total:18635      MisBP:5359   MisRate:28.76%    MPKI:0.02
PC:3cfa6     Total:62990      MisBP:5362   MisRate:8.51%    MPKI:0.02
PC:19614     Total:113829      MisBP:5414   MisRate:4.76%    MPKI:0.02
PC:3c7bc     Total:31488      MisBP:5419   MisRate:17.21%    MPKI:0.02
PC:2d56e     Total:104720      MisBP:5477   MisRate:5.23%    MPKI:0.02
PC:1882e     Total:67660      MisBP:5540   MisRate:8.19%    MPKI:0.02
PC:1acc2     Total:44044      MisBP:5556   MisRate:12.61%    MPKI:0.02
PC:31bae     Total:350592      MisBP:5588   MisRate:1.59%    MPKI:0.02
PC:3f4a2     Total:20973      MisBP:5603   MisRate:26.72%    MPKI:0.02
PC:18f84     Total:30097      MisBP:5610   MisRate:18.64%    MPKI:0.02
PC:1f780     Total:25306      MisBP:5628   MisRate:22.24%    MPKI:0.02
PC:19a6c     Total:25262      MisBP:5634   MisRate:22.30%    MPKI:0.02
PC:4782c     Total:30526      MisBP:5642   MisRate:18.48%    MPKI:0.02
PC:1accc     Total:43532      MisBP:5649   MisRate:12.98%    MPKI:0.02
PC:2ccde     Total:43955      MisBP:5723   MisRate:13.02%    MPKI:0.02
PC:2ff28     Total:32346      MisBP:5760   MisRate:17.81%    MPKI:0.02
PC:1f8a8     Total:72948      MisBP:5788   MisRate:7.93%    MPKI:0.02
PC:1b830     Total:13548      MisBP:5791   MisRate:42.74%    MPKI:0.02
PC:159e8     Total:48137      MisBP:5866   MisRate:12.19%    MPKI:0.02
PC:3c7ee     Total:30771      MisBP:5917   MisRate:19.23%    MPKI:0.02
PC:2d2be     Total:26883      MisBP:5921   MisRate:22.03%    MPKI:0.02
PC:154b2     Total:155554      MisBP:6037   MisRate:3.88%    MPKI:0.02
PC:1ad02     Total:31704      MisBP:6045   MisRate:19.07%    MPKI:0.02
PC:15c92     Total:38571      MisBP:6114   MisRate:15.85%    MPKI:0.02
PC:18eba     Total:37250      MisBP:6136   MisRate:16.47%    MPKI:0.02
PC:1add0     Total:57790      MisBP:6144   MisRate:10.63%    MPKI:0.02
PC:2e878     Total:239816      MisBP:6147   MisRate:2.56%    MPKI:0.02
PC:3c7e0     Total:40227      MisBP:6151   MisRate:15.29%    MPKI:0.02
PC:1c77e     Total:37175      MisBP:6195   MisRate:16.66%    MPKI:0.02
PC:30466     Total:57264      MisBP:6213   MisRate:10.85%    MPKI:0.02
PC:302a4     Total:37426      MisBP:6325   MisRate:16.90%    MPKI:0.02
PC:3198a     Total:248031      MisBP:6367   MisRate:2.57%    MPKI:0.02
PC:2ccb2     Total:40965      MisBP:6405   MisRate:15.64%    MPKI:0.02
PC:41130     Total:17154      MisBP:6427   MisRate:37.47%    MPKI:0.02
PC:1f99c     Total:39633      MisBP:6460   MisRate:16.30%    MPKI:0.02
PC:1f7e4     Total:24736      MisBP:6554   MisRate:26.50%    MPKI:0.02
PC:2886a     Total:222220      MisBP:6709   MisRate:3.02%    MPKI:0.02
PC:2d588     Total:61122      MisBP:6757   MisRate:11.05%    MPKI:0.02
PC:18d56     Total:48851      MisBP:6770   MisRate:13.86%    MPKI:0.02
PC:3c7b2     Total:43908      MisBP:6828   MisRate:15.55%    MPKI:0.02
PC:2e3ec     Total:69605      MisBP:6860   MisRate:9.86%    MPKI:0.02
PC:159d4     Total:49622      MisBP:6864   MisRate:13.83%    MPKI:0.02
PC:1973c     Total:48748      MisBP:6878   MisRate:14.11%    MPKI:0.02
PC:15972     Total:61927      MisBP:6936   MisRate:11.20%    MPKI:0.02
PC:2d3f2     Total:138845      MisBP:6972   MisRate:5.02%    MPKI:0.02
PC:197f4     Total:37604      MisBP:7029   MisRate:18.69%    MPKI:0.02
PC:41cc4     Total:20035      MisBP:7059   MisRate:35.23%    MPKI:0.02
PC:2ccd0     Total:84257      MisBP:7074   MisRate:8.40%    MPKI:0.02
PC:1a78a     Total:25755      MisBP:7297   MisRate:28.33%    MPKI:0.02
PC:1f8a2     Total:72614      MisBP:7377   MisRate:10.16%    MPKI:0.02
PC:1f7de     Total:51595      MisBP:7507   MisRate:14.55%    MPKI:0.02
PC:47c82     Total:25112      MisBP:7536   MisRate:30.01%    MPKI:0.02
PC:2e3bc     Total:57000      MisBP:7585   MisRate:13.31%    MPKI:0.02
PC:19754     Total:52103      MisBP:7613   MisRate:14.61%    MPKI:0.02
PC:2fd1e     Total:187259      MisBP:7664   MisRate:4.09%    MPKI:0.02
PC:47890     Total:75772      MisBP:7802   MisRate:10.30%    MPKI:0.03
PC:1f77a     Total:42859      MisBP:7820   MisRate:18.25%    MPKI:0.03
PC:18dfa     Total:40514      MisBP:7824   MisRate:19.31%    MPKI:0.03
PC:17e74     Total:25843      MisBP:7884   MisRate:30.51%    MPKI:0.03
PC:17de6     Total:36592      MisBP:7895   MisRate:21.58%    MPKI:0.03
PC:176c2     Total:50261      MisBP:7901   MisRate:15.72%    MPKI:0.03
PC:2d64a     Total:45019      MisBP:8018   MisRate:17.81%    MPKI:0.03
PC:47bcc     Total:36144      MisBP:8159   MisRate:22.57%    MPKI:0.03
PC:15a08     Total:46351      MisBP:8212   MisRate:17.72%    MPKI:0.03
PC:192e0     Total:53529      MisBP:8224   MisRate:15.36%    MPKI:0.03
PC:1f84c     Total:32168      MisBP:8283   MisRate:25.75%    MPKI:0.03
PC:199dc     Total:69571      MisBP:8327   MisRate:11.97%    MPKI:0.03
PC:1acaa     Total:48534      MisBP:8404   MisRate:17.32%    MPKI:0.03
PC:15b40     Total:34150      MisBP:8414   MisRate:24.64%    MPKI:0.03
PC:2ce48     Total:110840      MisBP:8431   MisRate:7.61%    MPKI:0.03
PC:1aca4     Total:55073      MisBP:8449   MisRate:15.34%    MPKI:0.03
PC:2cdee     Total:114157      MisBP:8461   MisRate:7.41%    MPKI:0.03
PC:1925a     Total:43614      MisBP:8481   MisRate:19.45%    MPKI:0.03
PC:1acb8     Total:38936      MisBP:8519   MisRate:21.88%    MPKI:0.03
PC:2d644     Total:58232      MisBP:8571   MisRate:14.72%    MPKI:0.03
PC:159fe     Total:42003      MisBP:8636   MisRate:20.56%    MPKI:0.03
PC:192ac     Total:52153      MisBP:8689   MisRate:16.66%    MPKI:0.03
PC:2cd68     Total:95623      MisBP:8692   MisRate:9.09%    MPKI:0.03
PC:2ce78     Total:31512      MisBP:8698   MisRate:27.60%    MPKI:0.03
PC:1ad0c     Total:59100      MisBP:8728   MisRate:14.77%    MPKI:0.03
PC:159ee     Total:46476      MisBP:8739   MisRate:18.80%    MPKI:0.03
PC:3bfda     Total:58945      MisBP:8768   MisRate:14.87%    MPKI:0.03
PC:1acbc     Total:53539      MisBP:8815   MisRate:16.46%    MPKI:0.03
PC:319b6     Total:413565      MisBP:8828   MisRate:2.13%    MPKI:0.03
PC:1b7f4     Total:28510      MisBP:8887   MisRate:31.17%    MPKI:0.03
PC:15a0e     Total:55319      MisBP:8969   MisRate:16.21%    MPKI:0.03
PC:14e10     Total:36274      MisBP:9027   MisRate:24.89%    MPKI:0.03
PC:18d72     Total:46349      MisBP:9103   MisRate:19.64%    MPKI:0.03
PC:2d6cc     Total:71190      MisBP:9130   MisRate:12.82%    MPKI:0.03
PC:1f682     Total:358393      MisBP:9133   MisRate:2.55%    MPKI:0.03
PC:2cda0     Total:87235      MisBP:9241   MisRate:10.59%    MPKI:0.03
PC:159f8     Total:44036      MisBP:9460   MisRate:21.48%    MPKI:0.03
PC:3cfac     Total:56585      MisBP:9463   MisRate:16.72%    MPKI:0.03
PC:1acf6     Total:35495      MisBP:9501   MisRate:26.77%    MPKI:0.03
PC:513c6     Total:127336      MisBP:9543   MisRate:7.49%    MPKI:0.03
PC:1f846     Total:61543      MisBP:9621   MisRate:15.63%    MPKI:0.03
PC:2ca86     Total:139483      MisBP:9722   MisRate:6.97%    MPKI:0.03
PC:30456     Total:78919      MisBP:9731   MisRate:12.33%    MPKI:0.03
PC:15950     Total:38970      MisBP:10023   MisRate:25.72%    MPKI:0.03
PC:1c12c     Total:63527      MisBP:10028   MisRate:15.79%    MPKI:0.03
PC:17fcc     Total:68743      MisBP:10060   MisRate:14.63%    MPKI:0.03
PC:1c01e     Total:59564      MisBP:10137   MisRate:17.02%    MPKI:0.03
PC:14e64     Total:61084      MisBP:10213   MisRate:16.72%    MPKI:0.03
PC:1c7d4     Total:36155      MisBP:10242   MisRate:28.33%    MPKI:0.03
PC:156b6     Total:173804      MisBP:10317   MisRate:5.94%    MPKI:0.03
PC:1c088     Total:31863      MisBP:10363   MisRate:32.52%    MPKI:0.03
PC:2fd66     Total:145597      MisBP:10457   MisRate:7.18%    MPKI:0.03
PC:18f6a     Total:73164      MisBP:10458   MisRate:14.29%    MPKI:0.03
PC:3bfc6     Total:48478      MisBP:10584   MisRate:21.83%    MPKI:0.03
PC:1bfe2     Total:102753      MisBP:10801   MisRate:10.51%    MPKI:0.03
PC:1c1d2     Total:43795      MisBP:10852   MisRate:24.78%    MPKI:0.04
PC:319c2     Total:100320      MisBP:10896   MisRate:10.86%    MPKI:0.04
PC:18dde     Total:33077      MisBP:11015   MisRate:33.30%    MPKI:0.04
PC:14ea4     Total:66652      MisBP:11204   MisRate:16.81%    MPKI:0.04
PC:2d294     Total:231926      MisBP:11205   MisRate:4.83%    MPKI:0.04
PC:1acd6     Total:79360      MisBP:11252   MisRate:14.18%    MPKI:0.04
PC:1c82c     Total:177548      MisBP:11385   MisRate:6.41%    MPKI:0.04
PC:19314     Total:56082      MisBP:11474   MisRate:20.46%    MPKI:0.04
PC:14fb8     Total:262310      MisBP:11808   MisRate:4.50%    MPKI:0.04
PC:2d7f6     Total:200567      MisBP:11814   MisRate:5.89%    MPKI:0.04
PC:2d6d0     Total:94589      MisBP:12043   MisRate:12.73%    MPKI:0.04
PC:3c220     Total:195021      MisBP:12064   MisRate:6.19%    MPKI:0.04
PC:15964     Total:62220      MisBP:12190   MisRate:19.59%    MPKI:0.04
PC:478b8     Total:74655      MisBP:12267   MisRate:16.43%    MPKI:0.04
PC:18d4c     Total:55492      MisBP:12321   MisRate:22.20%    MPKI:0.04
PC:28796     Total:285558      MisBP:12453   MisRate:4.36%    MPKI:0.04
PC:14ee6     Total:67919      MisBP:12524   MisRate:18.44%    MPKI:0.04
PC:3ca14     Total:100076      MisBP:12563   MisRate:12.55%    MPKI:0.04
PC:18d76     Total:51619      MisBP:12633   MisRate:24.47%    MPKI:0.04
PC:1f686     Total:174869      MisBP:12646   MisRate:7.23%    MPKI:0.04
PC:286bc     Total:44538      MisBP:12655   MisRate:28.41%    MPKI:0.04
PC:2fd4c     Total:259839      MisBP:12798   MisRate:4.93%    MPKI:0.04
PC:18d6a     Total:38380      MisBP:12807   MisRate:33.37%    MPKI:0.04
PC:14f26     Total:70062      MisBP:12963   MisRate:18.50%    MPKI:0.04
PC:14fa8     Total:58095      MisBP:12983   MisRate:22.35%    MPKI:0.04
PC:18cde     Total:86321      MisBP:13245   MisRate:15.34%    MPKI:0.04
PC:199f6     Total:90604      MisBP:13771   MisRate:15.20%    MPKI:0.04
PC:1ace0     Total:84655      MisBP:13772   MisRate:16.27%    MPKI:0.04
PC:3ca34     Total:94930      MisBP:13798   MisRate:14.53%    MPKI:0.04
PC:1595a     Total:49298      MisBP:13828   MisRate:28.05%    MPKI:0.04
PC:15a1e     Total:41686      MisBP:13885   MisRate:33.31%    MPKI:0.04
PC:306ea     Total:1463849      MisBP:14072   MisRate:0.96%    MPKI:0.05
PC:1576e     Total:75443      MisBP:14153   MisRate:18.76%    MPKI:0.05
PC:1aca0     Total:68376      MisBP:14425   MisRate:21.10%    MPKI:0.05
PC:2d2ae     Total:75755      MisBP:14486   MisRate:19.12%    MPKI:0.05
PC:2cb22     Total:169652      MisBP:14506   MisRate:8.55%    MPKI:0.05
PC:31ba6     Total:332741      MisBP:14519   MisRate:4.36%    MPKI:0.05
PC:3bf76     Total:308159      MisBP:14549   MisRate:4.72%    MPKI:0.05
PC:2f3f4     Total:165760      MisBP:14580   MisRate:8.80%    MPKI:0.05
PC:2e26c     Total:237352      MisBP:14771   MisRate:6.22%    MPKI:0.05
PC:31b32     Total:351579      MisBP:14908   MisRate:4.24%    MPKI:0.05
PC:2ca8c     Total:133478      MisBP:15398   MisRate:11.54%    MPKI:0.05
PC:2d6bc     Total:99785      MisBP:15416   MisRate:15.45%    MPKI:0.05
PC:47b58     Total:108728      MisBP:15493   MisRate:14.25%    MPKI:0.05
PC:2cd76     Total:77912      MisBP:15510   MisRate:19.91%    MPKI:0.05
PC:2ca4a     Total:87829      MisBP:15551   MisRate:17.71%    MPKI:0.05
PC:17dac     Total:48743      MisBP:15800   MisRate:32.41%    MPKI:0.05
PC:154ac     Total:148805      MisBP:15821   MisRate:10.63%    MPKI:0.05
PC:2cdc8     Total:106846      MisBP:15894   MisRate:14.88%    MPKI:0.05
PC:2cd4a     Total:118480      MisBP:16079   MisRate:13.57%    MPKI:0.05
PC:1bfca     Total:88037      MisBP:16159   MisRate:18.35%    MPKI:0.05
PC:14f62     Total:73510      MisBP:16235   MisRate:22.09%    MPKI:0.05
PC:3ca0a     Total:116592      MisBP:16497   MisRate:14.15%    MPKI:0.05
PC:1bfc4     Total:102732      MisBP:16537   MisRate:16.10%    MPKI:0.05
PC:3bf88     Total:44641      MisBP:17010   MisRate:38.10%    MPKI:0.05
PC:3c6e4     Total:66448      MisBP:17308   MisRate:26.05%    MPKI:0.06
PC:47b0c     Total:109561      MisBP:17579   MisRate:16.04%    MPKI:0.06
PC:2cb26     Total:177920      MisBP:17601   MisRate:9.89%    MPKI:0.06
PC:28788     Total:298752      MisBP:17655   MisRate:5.91%    MPKI:0.06
PC:2d7fe     Total:172203      MisBP:17663   MisRate:10.26%    MPKI:0.06
PC:9e50c     Total:569531      MisBP:17691   MisRate:3.11%    MPKI:0.06
PC:3c73a     Total:107177      MisBP:17901   MisRate:16.70%    MPKI:0.06
PC:2d47c     Total:69823      MisBP:17915   MisRate:25.66%    MPKI:0.06
PC:15a16     Total:54144      MisBP:18034   MisRate:33.31%    MPKI:0.06
PC:2fd46     Total:203163      MisBP:18176   MisRate:8.95%    MPKI:0.06
PC:319c8     Total:100034      MisBP:18207   MisRate:18.20%    MPKI:0.06
PC:18d3e     Total:64241      MisBP:18253   MisRate:28.41%    MPKI:0.06
PC:286ac     Total:407177      MisBP:18351   MisRate:4.51%    MPKI:0.06
PC:47b94     Total:119536      MisBP:18657   MisRate:15.61%    MPKI:0.06
PC:31996     Total:251902      MisBP:18760   MisRate:7.45%    MPKI:0.06
PC:3c224     Total:204024      MisBP:19168   MisRate:9.39%    MPKI:0.06
PC:3ca32     Total:139235      MisBP:19350   MisRate:13.90%    MPKI:0.06
PC:2fd2c     Total:182177      MisBP:19410   MisRate:10.65%    MPKI:0.06
PC:1bfe8     Total:92355      MisBP:19543   MisRate:21.16%    MPKI:0.06
PC:1bf88     Total:48756      MisBP:19577   MisRate:40.15%    MPKI:0.06
PC:51358     Total:1710989      MisBP:19608   MisRate:1.15%    MPKI:0.06
PC:18bb2     Total:129777      MisBP:19615   MisRate:15.11%    MPKI:0.06
PC:18d34     Total:79884      MisBP:20024   MisRate:25.07%    MPKI:0.06
PC:84c10     Total:50465      MisBP:20336   MisRate:40.30%    MPKI:0.07
PC:14fb2     Total:242381      MisBP:20893   MisRate:8.62%    MPKI:0.07
PC:513c2     Total:139039      MisBP:21305   MisRate:15.32%    MPKI:0.07
PC:2d576     Total:101650      MisBP:22137   MisRate:21.78%    MPKI:0.07
PC:2caf6     Total:147592      MisBP:22184   MisRate:15.03%    MPKI:0.07
PC:154a2     Total:102992      MisBP:22811   MisRate:22.15%    MPKI:0.07
PC:2d29e     Total:217674      MisBP:23300   MisRate:10.70%    MPKI:0.08
PC:314ce     Total:460344      MisBP:23496   MisRate:5.10%    MPKI:0.08
PC:2cca2     Total:123976      MisBP:23930   MisRate:19.30%    MPKI:0.08
PC:513b0     Total:157234      MisBP:24556   MisRate:15.62%    MPKI:0.08
PC:155e6     Total:117013      MisBP:25160   MisRate:21.50%    MPKI:0.08
PC:2cc86     Total:471005      MisBP:25371   MisRate:5.39%    MPKI:0.08
PC:24cc8     Total:78400      MisBP:25503   MisRate:32.53%    MPKI:0.08
PC:2cc64     Total:328722      MisBP:25628   MisRate:7.80%    MPKI:0.08
PC:47b60     Total:120041      MisBP:25805   MisRate:21.50%    MPKI:0.08
PC:1bfa8     Total:78151      MisBP:26349   MisRate:33.72%    MPKI:0.08
PC:2d878     Total:350172      MisBP:27077   MisRate:7.73%    MPKI:0.09
PC:157ba     Total:76775      MisBP:27843   MisRate:36.27%    MPKI:0.09
PC:2d7ee     Total:368969      MisBP:30793   MisRate:8.35%    MPKI:0.10
PC:2ca90     Total:159111      MisBP:30945   MisRate:19.45%    MPKI:0.10
PC:2cc6c     Total:160444      MisBP:31045   MisRate:19.35%    MPKI:0.10
PC:156e4     Total:227939      MisBP:31412   MisRate:13.78%    MPKI:0.10
PC:3199e     Total:419536      MisBP:31502   MisRate:7.51%    MPKI:0.10
PC:288b8     Total:357931      MisBP:31649   MisRate:8.84%    MPKI:0.10
PC:18bda     Total:301384      MisBP:31989   MisRate:10.61%    MPKI:0.10
PC:2fd58     Total:251335      MisBP:35817   MisRate:14.25%    MPKI:0.12
PC:17694     Total:996186      MisBP:36170   MisRate:3.63%    MPKI:0.12
PC:188ca     Total:143169      MisBP:37377   MisRate:26.11%    MPKI:0.12
PC:319bc     Total:399565      MisBP:37646   MisRate:9.42%    MPKI:0.12
PC:156a4     Total:211315      MisBP:37685   MisRate:17.83%    MPKI:0.12
PC:306c2     Total:1301053      MisBP:38079   MisRate:2.93%    MPKI:0.12
PC:51360     Total:1717104      MisBP:38653   MisRate:2.25%    MPKI:0.12
PC:512ba     Total:418481      MisBP:40030   MisRate:9.57%    MPKI:0.13
PC:51368     Total:1527952      MisBP:40265   MisRate:2.64%    MPKI:0.13
PC:18bde     Total:338646      MisBP:42082   MisRate:12.43%    MPKI:0.14
PC:2d2a2     Total:256456      MisBP:42364   MisRate:16.52%    MPKI:0.14
PC:3bf7c     Total:292792      MisBP:43066   MisRate:14.71%    MPKI:0.14
PC:2e870     Total:500407      MisBP:46711   MisRate:9.33%    MPKI:0.15
PC:512ac     Total:845359      MisBP:47235   MisRate:5.59%    MPKI:0.15
PC:30696     Total:1419973      MisBP:51324   MisRate:3.61%    MPKI:0.17
PC:28718     Total:332395      MisBP:56862   MisRate:17.11%    MPKI:0.18
PC:2893e     Total:902622      MisBP:57179   MisRate:6.33%    MPKI:0.18
PC:2cc9c     Total:544123      MisBP:57258   MisRate:10.52%    MPKI:0.18
PC:28644     Total:353810      MisBP:59449   MisRate:16.80%    MPKI:0.19
PC:512b6     Total:603986      MisBP:59631   MisRate:9.87%    MPKI:0.19
PC:2cc8c     Total:449494      MisBP:63449   MisRate:14.12%    MPKI:0.20
PC:1a934     Total:207963      MisBP:65803   MisRate:31.64%    MPKI:0.21
PC:287d4     Total:296771      MisBP:68182   MisRate:22.97%    MPKI:0.22
PC:306c6     Total:1296154      MisBP:90386   MisRate:6.97%    MPKI:0.29
PC:28602     Total:4115868      MisBP:108935   MisRate:2.65%    MPKI:0.35
PC:2866a     Total:4059839      MisBP:273732   MisRate:6.74%    MPKI:0.88
Totfetch:599104718  TotInsts:310000005  TotMis : inf%   MPKI : 18.06
=============finish sim!!!!!!=============
Done running SimPoint!
