Global frequency set at 1000000000000 ticks per second
 Register [printBranch()] ExitCallback !!!!!!! 
gem5 Simulator System.  https://www.gem5.org
gem5 is copyrighted software; use the --copyright option for details.

gem5 version 22.0.0.2
gem5 compiled Sep  7 2022 00:42:18
gem5 started Sep  7 2022 01:47:29
gem5 executing on a100, pid 2723199
command line: /data/zxf/gem5/gem5-prof/build/ARM/gem5.fast --outdir=/data/zxf/checkpoint/spec2006/445.gobmk/prof/gobmk_ckp_2 /data/zxf/gem5/gem5-prof/configs/example/se.py --cpu-type O3CPU --cpu-clock 1GHz --num-cpu 1 --caches --l2cache --l1i_size 32kB --l1d_size 32kB --l2_size 1MB --l1i_assoc 8 --l1d_assoc 8 --l2_assoc 16 --cacheline_size 64 --mem-type DDR3_2133_8x8 --mem-size 16GB --l1d-hwp-type=BOPPrefetcher --restore-simpoint-checkpoint -r 2 --checkpoint-dir /data/zxf/checkpoint/spec2006/445.gobmk/ckpt -i 13x13.tst -c gobmk_base.gcc41-64bit -o '--quiet --mode gtp'

info: Standard input is not a terminal, disabling listeners.
Resuming from /data/zxf/checkpoint/spec2006/445.gobmk/ckpt/cpt.simpoint_01_inst_8990000000_weight_0.086283_interval_300000000_warmup_10000000
Resuming from SimPoint #1, start_inst:8990000000, weight:0.086283, interval:300000000, warmup:10000000
Switch at curTick count:10000
Switched CPUS @ tick 6080721548500
[(<m5.objects.ArmCPU.ArmAtomicSimpleCPU object at 0x7f9685b6bbb0>, <m5.objects.ArmCPU.ArmO3CPU object at 0x7f9685b84e20>)]
switching cpus



+++++++++++++++++++++++++zxf print simpoint+++++++++++++++++++++++++++
Warmed up! Dumping and resetting stats!


=============start sim!!!!!!=============
=2 E10

= white

PC:3b6ee     Total:73      MisBP:0   MisRate:0.00%    MPKI:0.00
PC:3b6da     Total:76      MisBP:0   MisRate:0.00%    MPKI:0.00
PC:26e64     Total:76      MisBP:0   MisRate:0.00%    MPKI:0.00
PC:3b6de     Total:76      MisBP:0   MisRate:0.00%    MPKI:0.00
PC:26e68     Total:76      MisBP:0   MisRate:0.00%    MPKI:0.00
PC:3b6e4     Total:73      MisBP:0   MisRate:0.00%    MPKI:0.00
PC:26e6e     Total:38      MisBP:0   MisRate:0.00%    MPKI:0.00
PC:3b6e6     Total:73      MisBP:0   MisRate:0.00%    MPKI:0.00
PC:3b6e8     Total:73      MisBP:0   MisRate:0.00%    MPKI:0.00
PC:26e72     Total:38      MisBP:0   MisRate:0.00%    MPKI:0.00
PC:3b6ea     Total:73      MisBP:0   MisRate:0.00%    MPKI:0.00
PC:3b6ec     Total:73      MisBP:0   MisRate:0.00%    MPKI:0.00
PC:26e76     Total:38      MisBP:0   MisRate:0.00%    MPKI:0.00
PC:3b6d8     Total:76      MisBP:0   MisRate:0.00%    MPKI:0.00
PC:26e78     Total:38      MisBP:0   MisRate:0.00%    MPKI:0.00
PC:3b6f0     Total:73      MisBP:0   MisRate:0.00%    MPKI:0.00
PC:26e7a     Total:38      MisBP:0   MisRate:0.00%    MPKI:0.00
PC:3b6f2     Total:73      MisBP:0   MisRate:0.00%    MPKI:0.00
PC:26e7c     Total:82      MisBP:0   MisRate:0.00%    MPKI:0.00
PC:3b6f4     Total:70      MisBP:0   MisRate:0.00%    MPKI:0.00
PC:3b6f6     Total:166      MisBP:0   MisRate:0.00%    MPKI:0.00
PC:26e80     Total:65      MisBP:0   MisRate:0.00%    MPKI:0.00
PC:3b6f8     Total:166      MisBP:0   MisRate:0.00%    MPKI:0.00
PC:26e82     Total:325      MisBP:0   MisRate:0.00%    MPKI:0.00
PC:3b6fa     Total:166      MisBP:0   MisRate:0.00%    MPKI:0.00
PC:3b6fe     Total:165      MisBP:0   MisRate:0.00%    MPKI:0.00
PC:3af38     Total:1026      MisBP:0   MisRate:0.00%    MPKI:0.00
PC:3af28     Total:239      MisBP:0   MisRate:0.00%    MPKI:0.00
PC:4efd2     Total:103      MisBP:0   MisRate:0.00%    MPKI:0.00
PC:beff9ba4     Total:1      MisBP:0   MisRate:0.00%    MPKI:0.00
PC:3af2a     Total:239      MisBP:0   MisRate:0.00%    MPKI:0.00
PC:5008e     Total:117      MisBP:0   MisRate:0.00%    MPKI:0.00
PC:beffac60     Total:1      MisBP:0   MisRate:0.00%    MPKI:0.00
PC:3af2e     Total:239      MisBP:0   MisRate:0.00%    MPKI:0.00
PC:beffac64     Total:1      MisBP:0   MisRate:0.00%    MPKI:0.00
PC:266b8     Total:12      MisBP:0   MisRate:0.00%    MPKI:0.00
PC:3af32     Total:239      MisBP:0   MisRate:0.00%    MPKI:0.00
PC:50096     Total:24      MisBP:0   MisRate:0.00%    MPKI:0.00
PC:beffac68     Total:1      MisBP:0   MisRate:0.00%    MPKI:0.00
PC:3b72e     Total:214      MisBP:0   MisRate:0.00%    MPKI:0.00
PC:5009c     Total:116      MisBP:0   MisRate:0.00%    MPKI:0.00
PC:266c2     Total:1      MisBP:0   MisRate:0.00%    MPKI:0.00
PC:3af3c     Total:513      MisBP:0   MisRate:0.00%    MPKI:0.00
PC:266c6     Total:1      MisBP:0   MisRate:0.00%    MPKI:0.00
PC:3af4a     Total:155      MisBP:0   MisRate:0.00%    MPKI:0.00
PC:3b6cc     Total:78      MisBP:0   MisRate:0.00%    MPKI:0.00
PC:26e56     Total:79      MisBP:0   MisRate:0.00%    MPKI:0.00
PC:3b6ce     Total:78      MisBP:0   MisRate:0.00%    MPKI:0.00
PC:26e5a     Total:79      MisBP:0   MisRate:0.00%    MPKI:0.00
PC:3b6d4     Total:76      MisBP:0   MisRate:0.00%    MPKI:0.00
PC:26e5e     Total:76      MisBP:0   MisRate:0.00%    MPKI:0.00
PC:8d92e     Total:136      MisBP:0   MisRate:0.00%    MPKI:0.00
PC:8d926     Total:136      MisBP:0   MisRate:0.00%    MPKI:0.00
PC:8eb04     Total:1      MisBP:0   MisRate:0.00%    MPKI:0.00
PC:3b750     Total:160      MisBP:0   MisRate:0.00%    MPKI:0.00
PC:37aa7c     Total:1      MisBP:0   MisRate:0.00%    MPKI:0.00
PC:8d928     Total:136      MisBP:0   MisRate:0.00%    MPKI:0.00
PC:8eb06     Total:1      MisBP:0   MisRate:0.00%    MPKI:0.00
PC:3b752     Total:160      MisBP:0   MisRate:0.00%    MPKI:0.00
PC:3b754     Total:160      MisBP:0   MisRate:0.00%    MPKI:0.00
PC:37aa80     Total:1      MisBP:0   MisRate:0.00%    MPKI:0.00
PC:8d92c     Total:136      MisBP:0   MisRate:0.00%    MPKI:0.00
PC:8eb0a     Total:1      MisBP:0   MisRate:0.00%    MPKI:0.00
PC:3b756     Total:160      MisBP:0   MisRate:0.00%    MPKI:0.00
PC:3b74e     Total:160      MisBP:0   MisRate:0.00%    MPKI:0.00
PC:3b758     Total:160      MisBP:0   MisRate:0.00%    MPKI:0.00
PC:37aa84     Total:1      MisBP:0   MisRate:0.00%    MPKI:0.00
PC:8d930     Total:145      MisBP:0   MisRate:0.00%    MPKI:0.00
PC:8eb0e     Total:1      MisBP:0   MisRate:0.00%    MPKI:0.00
PC:3b75a     Total:160      MisBP:0   MisRate:0.00%    MPKI:0.00
PC:8d932     Total:145      MisBP:0   MisRate:0.00%    MPKI:0.00
PC:8eb12     Total:1      MisBP:0   MisRate:0.00%    MPKI:0.00
PC:3b75e     Total:160      MisBP:0   MisRate:0.00%    MPKI:0.00
PC:8d936     Total:97      MisBP:0   MisRate:0.00%    MPKI:0.00
PC:8eb14     Total:1      MisBP:0   MisRate:0.00%    MPKI:0.00
PC:3b760     Total:160      MisBP:0   MisRate:0.00%    MPKI:0.00
PC:8eb16     Total:1      MisBP:0   MisRate:0.00%    MPKI:0.00
PC:3b744     Total:160      MisBP:0   MisRate:0.00%    MPKI:0.00
PC:8eae6     Total:59      MisBP:0   MisRate:0.00%    MPKI:0.00
PC:3b732     Total:214      MisBP:0   MisRate:0.00%    MPKI:0.00
PC:8eaec     Total:59      MisBP:0   MisRate:0.00%    MPKI:0.00
PC:3b738     Total:213      MisBP:0   MisRate:0.00%    MPKI:0.00
PC:8eaee     Total:3      MisBP:0   MisRate:0.00%    MPKI:0.00
PC:3b73a     Total:213      MisBP:0   MisRate:0.00%    MPKI:0.00
PC:8eaf0     Total:3      MisBP:0   MisRate:0.00%    MPKI:0.00
PC:3b73c     Total:213      MisBP:0   MisRate:0.00%    MPKI:0.00
PC:8eaf2     Total:3      MisBP:0   MisRate:0.00%    MPKI:0.00
PC:3b73e     Total:160      MisBP:0   MisRate:0.00%    MPKI:0.00
PC:3b742     Total:160      MisBP:0   MisRate:0.00%    MPKI:0.00
PC:8eaf8     Total:3      MisBP:0   MisRate:0.00%    MPKI:0.00
PC:266b0     Total:55      MisBP:0   MisRate:0.00%    MPKI:0.00
PC:8eafa     Total:3      MisBP:0   MisRate:0.00%    MPKI:0.00
PC:3b746     Total:160      MisBP:0   MisRate:0.00%    MPKI:0.00
PC:8eafc     Total:3      MisBP:0   MisRate:0.00%    MPKI:0.00
PC:3b748     Total:160      MisBP:0   MisRate:0.00%    MPKI:0.00
PC:37aa74     Total:1      MisBP:0   MisRate:0.00%    MPKI:0.00
PC:8d920     Total:136      MisBP:0   MisRate:0.00%    MPKI:0.00
PC:3b74a     Total:160      MisBP:0   MisRate:0.00%    MPKI:0.00
PC:8eb00     Total:1      MisBP:0   MisRate:0.00%    MPKI:0.00
PC:3b74c     Total:160      MisBP:0   MisRate:0.00%    MPKI:0.00
PC:37aa78     Total:1      MisBP:0   MisRate:0.00%    MPKI:0.00
PC:8d924     Total:136      MisBP:0   MisRate:0.00%    MPKI:0.00
PC:2659c     Total:1      MisBP:0   MisRate:0.00%    MPKI:0.00
PC:3ae02     Total:442      MisBP:0   MisRate:0.00%    MPKI:0.00
PC:831ee     Total:10      MisBP:0   MisRate:0.00%    MPKI:0.00
PC:1c7a4     Total:77557      MisBP:0   MisRate:0.00%    MPKI:0.00
PC:831f2     Total:10      MisBP:0   MisRate:0.00%    MPKI:0.00
PC:4ff6e     Total:34      MisBP:0   MisRate:0.00%    MPKI:0.00
PC:26594     Total:1      MisBP:0   MisRate:0.00%    MPKI:0.00
PC:3ae0e     Total:442      MisBP:0   MisRate:0.00%    MPKI:0.00
PC:26598     Total:1      MisBP:0   MisRate:0.00%    MPKI:0.00
PC:1c7ac     Total:464794      MisBP:0   MisRate:0.00%    MPKI:0.00
PC:831fa     Total:10      MisBP:0   MisRate:0.00%    MPKI:0.00
PC:3ae12     Total:845      MisBP:0   MisRate:0.00%    MPKI:0.00
PC:4ff76     Total:9      MisBP:0   MisRate:0.00%    MPKI:0.00
PC:8e1b6     Total:2      MisBP:0   MisRate:0.00%    MPKI:0.00
PC:3ae14     Total:845      MisBP:0   MisRate:0.00%    MPKI:0.00
PC:3ae18     Total:845      MisBP:0   MisRate:0.00%    MPKI:0.00
PC:99542     Total:2      MisBP:0   MisRate:0.00%    MPKI:0.00
PC:1c7b4     Total:46436      MisBP:0   MisRate:0.00%    MPKI:0.00
PC:83202     Total:10      MisBP:0   MisRate:0.00%    MPKI:0.00
PC:4ff7e     Total:6      MisBP:0   MisRate:0.00%    MPKI:0.00
PC:265a4     Total:1      MisBP:0   MisRate:0.00%    MPKI:0.00
PC:3ae1c     Total:506      MisBP:0   MisRate:0.00%    MPKI:0.00
PC:99548     Total:2      MisBP:0   MisRate:0.00%    MPKI:0.00
PC:1c7ba     Total:46436      MisBP:0   MisRate:0.00%    MPKI:0.00
PC:3ae20     Total:506      MisBP:0   MisRate:0.00%    MPKI:0.00
PC:4ff84     Total:6      MisBP:0   MisRate:0.00%    MPKI:0.00
PC:1c794     Total:50423      MisBP:0   MisRate:0.00%    MPKI:0.00
PC:8e1a4     Total:114      MisBP:0   MisRate:0.00%    MPKI:0.00
PC:4ff54     Total:21      MisBP:0   MisRate:0.00%    MPKI:0.00
PC:2657a     Total:625      MisBP:0   MisRate:0.00%    MPKI:0.00
PC:1c78c     Total:28160      MisBP:0   MisRate:0.00%    MPKI:0.00
PC:831da     Total:10      MisBP:0   MisRate:0.00%    MPKI:0.00
PC:1c78e     Total:28997      MisBP:0   MisRate:0.00%    MPKI:0.00
PC:8e1a8     Total:2      MisBP:0   MisRate:0.00%    MPKI:0.00
PC:4ff58     Total:21      MisBP:0   MisRate:0.00%    MPKI:0.00
PC:2657e     Total:518      MisBP:0   MisRate:0.00%    MPKI:0.00
PC:831de     Total:10      MisBP:0   MisRate:0.00%    MPKI:0.00
PC:8e1aa     Total:2      MisBP:0   MisRate:0.00%    MPKI:0.00
PC:3adf6     Total:501      MisBP:0   MisRate:0.00%    MPKI:0.00
PC:265aa     Total:1      MisBP:0   MisRate:0.00%    MPKI:0.00
PC:831e2     Total:10      MisBP:0   MisRate:0.00%    MPKI:0.00
PC:8e1ae     Total:2      MisBP:0   MisRate:0.00%    MPKI:0.00
PC:3adfa     Total:501      MisBP:0   MisRate:0.00%    MPKI:0.00
PC:4ff5e     Total:34      MisBP:0   MisRate:0.00%    MPKI:0.00
PC:1c798     Total:24994      MisBP:0   MisRate:0.00%    MPKI:0.00
PC:831e6     Total:10      MisBP:0   MisRate:0.00%    MPKI:0.00
PC:8e1b2     Total:2      MisBP:0   MisRate:0.00%    MPKI:0.00
PC:3adfe     Total:442      MisBP:0   MisRate:0.00%    MPKI:0.00
PC:4ff62     Total:34      MisBP:0   MisRate:0.00%    MPKI:0.00
PC:26588     Total:205      MisBP:0   MisRate:0.00%    MPKI:0.00
PC:831ea     Total:10      MisBP:0   MisRate:0.00%    MPKI:0.00
PC:1c8ba     Total:53335      MisBP:0   MisRate:0.00%    MPKI:0.00
PC:3b0fe     Total:392      MisBP:0   MisRate:0.00%    MPKI:0.00
PC:3b102     Total:392      MisBP:0   MisRate:0.00%    MPKI:0.00
PC:50266     Total:3      MisBP:0   MisRate:0.00%    MPKI:0.00
PC:2688c     Total:683      MisBP:0   MisRate:0.00%    MPKI:0.00
PC:3b10e     Total:168      MisBP:0   MisRate:0.00%    MPKI:0.00
PC:26898     Total:683      MisBP:0   MisRate:0.00%    MPKI:0.00
PC:37054     Total:8      MisBP:0   MisRate:0.00%    MPKI:0.00
PC:37058     Total:8      MisBP:0   MisRate:0.00%    MPKI:0.00
PC:189f6     Total:62026      MisBP:0   MisRate:0.00%    MPKI:0.00
PC:18108     Total:222      MisBP:0   MisRate:0.00%    MPKI:0.00
PC:41ae2     Total:24      MisBP:0   MisRate:0.00%    MPKI:0.00
PC:3705c     Total:8      MisBP:0   MisRate:0.00%    MPKI:0.00
PC:26882     Total:683      MisBP:0   MisRate:0.00%    MPKI:0.00
PC:3af20     Total:172      MisBP:0   MisRate:0.00%    MPKI:0.00
PC:50084     Total:117      MisBP:0   MisRate:0.00%    MPKI:0.00
PC:266aa     Total:55      MisBP:0   MisRate:0.00%    MPKI:0.00
PC:4efca     Total:103      MisBP:0   MisRate:0.00%    MPKI:0.00
PC:beff9b9c     Total:1      MisBP:0   MisRate:0.00%    MPKI:0.00
PC:3af24     Total:172      MisBP:0   MisRate:0.00%    MPKI:0.00
PC:4efce     Total:103      MisBP:0   MisRate:0.00%    MPKI:0.00
PC:beff9ba0     Total:1      MisBP:0   MisRate:0.00%    MPKI:0.00
PC:3af26     Total:172      MisBP:0   MisRate:0.00%    MPKI:0.00
PC:5008a     Total:117      MisBP:0   MisRate:0.00%    MPKI:0.00
PC:beffac5c     Total:1      MisBP:0   MisRate:0.00%    MPKI:0.00
PC:83216     Total:10      MisBP:0   MisRate:0.00%    MPKI:0.00
PC:1c7bc     Total:46436      MisBP:0   MisRate:0.00%    MPKI:0.00
PC:8320a     Total:10      MisBP:0   MisRate:0.00%    MPKI:0.00
PC:4ff86     Total:6      MisBP:0   MisRate:0.00%    MPKI:0.00
PC:265ac     Total:1      MisBP:0   MisRate:0.00%    MPKI:0.00
PC:3ae26     Total:59      MisBP:0   MisRate:0.00%    MPKI:0.00
PC:265b0     Total:1      MisBP:0   MisRate:0.00%    MPKI:0.00
PC:1c7c2     Total:46192      MisBP:0   MisRate:0.00%    MPKI:0.00
PC:3ae28     Total:59      MisBP:0   MisRate:0.00%    MPKI:0.00
PC:1c7c6     Total:47077      MisBP:0   MisRate:0.00%    MPKI:0.00
PC:3ae2c     Total:59      MisBP:0   MisRate:0.00%    MPKI:0.00
PC:99556     Total:1      MisBP:0   MisRate:0.00%    MPKI:0.00
PC:1c7c8     Total:47077      MisBP:0   MisRate:0.00%    MPKI:0.00
PC:3b762     Total:155      MisBP:0   MisRate:0.00%    MPKI:0.00
PC:3ae2e     Total:59      MisBP:0   MisRate:0.00%    MPKI:0.00
PC:1c7cc     Total:47077      MisBP:0   MisRate:0.00%    MPKI:0.00
PC:8321a     Total:10      MisBP:0   MisRate:0.00%    MPKI:0.00
PC:3ae32     Total:59      MisBP:0   MisRate:0.00%    MPKI:0.00
PC:3ae34     Total:59      MisBP:0   MisRate:0.00%    MPKI:0.00
PC:99560     Total:1      MisBP:0   MisRate:0.00%    MPKI:0.00
PC:1c7d2     Total:71941      MisBP:0   MisRate:0.00%    MPKI:0.00
PC:3ae38     Total:59      MisBP:0   MisRate:0.00%    MPKI:0.00
PC:3ae3c     Total:2      MisBP:0   MisRate:0.00%    MPKI:0.00
PC:3b0f8     Total:405      MisBP:0   MisRate:0.00%    MPKI:0.00
PC:5025c     Total:3      MisBP:0   MisRate:0.00%    MPKI:0.00
PC:3b968     Total:45      MisBP:0   MisRate:0.00%    MPKI:0.00
PC:3b942     Total:140      MisBP:0   MisRate:0.00%    MPKI:0.00
PC:3b946     Total:45      MisBP:0   MisRate:0.00%    MPKI:0.00
PC:3b94a     Total:45      MisBP:0   MisRate:0.00%    MPKI:0.00
PC:3b94e     Total:45      MisBP:0   MisRate:0.00%    MPKI:0.00
PC:3b950     Total:45      MisBP:0   MisRate:0.00%    MPKI:0.00
PC:3b954     Total:45      MisBP:0   MisRate:0.00%    MPKI:0.00
PC:3b958     Total:45      MisBP:0   MisRate:0.00%    MPKI:0.00
PC:3b95a     Total:45      MisBP:0   MisRate:0.00%    MPKI:0.00
PC:3b95e     Total:45      MisBP:0   MisRate:0.00%    MPKI:0.00
PC:3b962     Total:45      MisBP:0   MisRate:0.00%    MPKI:0.00
PC:3b964     Total:45      MisBP:0   MisRate:0.00%    MPKI:0.00
PC:3b966     Total:45      MisBP:0   MisRate:0.00%    MPKI:0.00
PC:3b93e     Total:140      MisBP:0   MisRate:0.00%    MPKI:0.00
PC:3b96c     Total:45      MisBP:0   MisRate:0.00%    MPKI:0.00
PC:3b970     Total:45      MisBP:0   MisRate:0.00%    MPKI:0.00
PC:3b976     Total:112      MisBP:0   MisRate:0.00%    MPKI:0.00
PC:12006     Total:1      MisBP:0   MisRate:0.00%    MPKI:0.00
PC:3b9e0     Total:137      MisBP:0   MisRate:0.00%    MPKI:0.00
PC:3b9e4     Total:129      MisBP:0   MisRate:0.00%    MPKI:0.00
PC:3b9e8     Total:11      MisBP:0   MisRate:0.00%    MPKI:0.00
PC:3b9ec     Total:11      MisBP:0   MisRate:0.00%    MPKI:0.00
PC:39b02     Total:651      MisBP:0   MisRate:0.00%    MPKI:0.00
PC:4ec66     Total:2      MisBP:0   MisRate:0.00%    MPKI:0.00
PC:2528c     Total:6863      MisBP:0   MisRate:0.00%    MPKI:0.00
PC:1b4a0     Total:484520      MisBP:0   MisRate:0.00%    MPKI:0.00
PC:3b91c     Total:132      MisBP:0   MisRate:0.00%    MPKI:0.00
PC:3b8f8     Total:136      MisBP:0   MisRate:0.00%    MPKI:0.00
PC:3b8fc     Total:136      MisBP:0   MisRate:0.00%    MPKI:0.00
PC:3b900     Total:132      MisBP:0   MisRate:0.00%    MPKI:0.00
PC:3b904     Total:132      MisBP:0   MisRate:0.00%    MPKI:0.00
PC:3b908     Total:132      MisBP:0   MisRate:0.00%    MPKI:0.00
PC:3b90a     Total:132      MisBP:0   MisRate:0.00%    MPKI:0.00
PC:3b90e     Total:132      MisBP:0   MisRate:0.00%    MPKI:0.00
PC:3b910     Total:132      MisBP:0   MisRate:0.00%    MPKI:0.00
PC:3b912     Total:132      MisBP:0   MisRate:0.00%    MPKI:0.00
PC:3b916     Total:132      MisBP:0   MisRate:0.00%    MPKI:0.00
PC:3b918     Total:132      MisBP:0   MisRate:0.00%    MPKI:0.00
PC:3b91a     Total:132      MisBP:0   MisRate:0.00%    MPKI:0.00
PC:39b10     Total:157      MisBP:0   MisRate:0.00%    MPKI:0.00
PC:3b91e     Total:132      MisBP:0   MisRate:0.00%    MPKI:0.00
PC:3b920     Total:132      MisBP:0   MisRate:0.00%    MPKI:0.00
PC:3b922     Total:132      MisBP:0   MisRate:0.00%    MPKI:0.00
PC:3b924     Total:132      MisBP:0   MisRate:0.00%    MPKI:0.00
PC:3b926     Total:132      MisBP:0   MisRate:0.00%    MPKI:0.00
PC:3b928     Total:132      MisBP:0   MisRate:0.00%    MPKI:0.00
PC:3b92c     Total:132      MisBP:0   MisRate:0.00%    MPKI:0.00
PC:3b92e     Total:132      MisBP:0   MisRate:0.00%    MPKI:0.00
PC:3b934     Total:55      MisBP:0   MisRate:0.00%    MPKI:0.00
PC:3b938     Total:55      MisBP:0   MisRate:0.00%    MPKI:0.00
PC:3b93c     Total:160      MisBP:0   MisRate:0.00%    MPKI:0.00
PC:1b554     Total:45544      MisBP:0   MisRate:0.00%    MPKI:0.00
PC:4dfa2     Total:170      MisBP:0   MisRate:0.00%    MPKI:0.00
PC:24eb6     Total:113338      MisBP:0   MisRate:0.00%    MPKI:0.00
PC:1b4f8     Total:7244      MisBP:0   MisRate:0.00%    MPKI:0.00
PC:81f46     Total:12      MisBP:0   MisRate:0.00%    MPKI:0.00
PC:24ec8     Total:107524      MisBP:0   MisRate:0.00%    MPKI:0.00
PC:1b50a     Total:48935      MisBP:0   MisRate:0.00%    MPKI:0.00
PC:1b52e     Total:1177      MisBP:0   MisRate:0.00%    MPKI:0.00
PC:81f7c     Total:11      MisBP:0   MisRate:0.00%    MPKI:0.00
PC:1b536     Total:1177      MisBP:0   MisRate:0.00%    MPKI:0.00
PC:1b53a     Total:1130      MisBP:0   MisRate:0.00%    MPKI:0.00
PC:1b53e     Total:1130      MisBP:0   MisRate:0.00%    MPKI:0.00
PC:1b548     Total:45544      MisBP:0   MisRate:0.00%    MPKI:0.00
PC:81f3e     Total:12      MisBP:0   MisRate:0.00%    MPKI:0.00
PC:81fa2     Total:13      MisBP:0   MisRate:0.00%    MPKI:0.00
PC:24f20     Total:70980      MisBP:0   MisRate:0.00%    MPKI:0.00
PC:1b562     Total:45543      MisBP:0   MisRate:0.00%    MPKI:0.00
PC:81fb0     Total:13      MisBP:0   MisRate:0.00%    MPKI:0.00
PC:81fb8     Total:11      MisBP:0   MisRate:0.00%    MPKI:0.00
PC:3ba00     Total:5      MisBP:0   MisRate:0.00%    MPKI:0.00
PC:1202a     Total:159      MisBP:0   MisRate:0.00%    MPKI:0.00
PC:3ba04     Total:5      MisBP:0   MisRate:0.00%    MPKI:0.00
PC:1202e     Total:159      MisBP:0   MisRate:0.00%    MPKI:0.00
PC:3ba08     Total:10      MisBP:0   MisRate:0.00%    MPKI:0.00
PC:12032     Total:159      MisBP:0   MisRate:0.00%    MPKI:0.00
PC:3ba0c     Total:5      MisBP:0   MisRate:0.00%    MPKI:0.00
PC:81f2a     Total:14      MisBP:0   MisRate:0.00%    MPKI:0.00
PC:39b14     Total:148      MisBP:0   MisRate:0.00%    MPKI:0.00
PC:4ec78     Total:1      MisBP:0   MisRate:0.00%    MPKI:0.00
PC:2529e     Total:5794      MisBP:0   MisRate:0.00%    MPKI:0.00
PC:1b4ae     Total:59515      MisBP:0   MisRate:0.00%    MPKI:0.00
PC:199e4     Total:147080      MisBP:0   MisRate:0.00%    MPKI:0.00
PC:96772     Total:10      MisBP:0   MisRate:0.00%    MPKI:0.00
PC:1b4b2     Total:59514      MisBP:0   MisRate:0.00%    MPKI:0.00
PC:96776     Total:1      MisBP:0   MisRate:0.00%    MPKI:0.00
PC:1b4c2     Total:54521      MisBP:0   MisRate:0.00%    MPKI:0.00
PC:10168     Total:478      MisBP:0   MisRate:0.00%    MPKI:0.00
PC:39b42     Total:112      MisBP:0   MisRate:0.00%    MPKI:0.00
PC:1b4dc     Total:7475      MisBP:0   MisRate:0.00%    MPKI:0.00
PC:beffa570     Total:2      MisBP:0   MisRate:0.00%    MPKI:0.00
PC:10178     Total:478      MisBP:0   MisRate:0.00%    MPKI:0.00
PC:39b52     Total:108      MisBP:0   MisRate:0.00%    MPKI:0.00
PC:4ecb6     Total:3      MisBP:0   MisRate:0.00%    MPKI:0.00
PC:252dc     Total:20257      MisBP:0   MisRate:0.00%    MPKI:0.00
PC:1b4ec     Total:7475      MisBP:0   MisRate:0.00%    MPKI:0.00
PC:81f3a     Total:13      MisBP:0   MisRate:0.00%    MPKI:0.00
PC:1017c     Total:478      MisBP:0   MisRate:0.00%    MPKI:0.00
PC:39b56     Total:110      MisBP:0   MisRate:0.00%    MPKI:0.00
PC:4ecba     Total:3      MisBP:0   MisRate:0.00%    MPKI:0.00
PC:252e0     Total:10084      MisBP:0   MisRate:0.00%    MPKI:0.00
PC:1b4f0     Total:7244      MisBP:0   MisRate:0.00%    MPKI:0.00
PC:3b782     Total:19      MisBP:0   MisRate:0.00%    MPKI:0.00
PC:39746     Total:59      MisBP:0   MisRate:0.00%    MPKI:0.00
PC:24ed0     Total:111433      MisBP:0   MisRate:0.00%    MPKI:0.00
PC:1b9f0     Total:44      MisBP:0   MisRate:0.00%    MPKI:0.00
PC:1b516     Total:1202      MisBP:0   MisRate:0.00%    MPKI:0.00
PC:81f64     Total:11      MisBP:0   MisRate:0.00%    MPKI:0.00
PC:1b9f4     Total:43      MisBP:0   MisRate:0.00%    MPKI:0.00
PC:1b9f8     Total:37      MisBP:0   MisRate:0.00%    MPKI:0.00
PC:11da6     Total:61      MisBP:0   MisRate:0.00%    MPKI:0.00
PC:3b780     Total:19      MisBP:0   MisRate:0.00%    MPKI:0.00
PC:37aaac     Total:1      MisBP:0   MisRate:0.00%    MPKI:0.00
PC:8d958     Total:32      MisBP:0   MisRate:0.00%    MPKI:0.00
PC:11da8     Total:61      MisBP:0   MisRate:0.00%    MPKI:0.00
PC:1b9ec     Total:44      MisBP:0   MisRate:0.00%    MPKI:0.00
PC:3a5a6     Total:95      MisBP:0   MisRate:0.00%    MPKI:0.00
PC:8d95a     Total:32      MisBP:0   MisRate:0.00%    MPKI:0.00
PC:11dac     Total:61      MisBP:0   MisRate:0.00%    MPKI:0.00
PC:3b786     Total:19      MisBP:0   MisRate:0.00%    MPKI:0.00
PC:3a5aa     Total:95      MisBP:0   MisRate:0.00%    MPKI:0.00
PC:8d95e     Total:8      MisBP:0   MisRate:0.00%    MPKI:0.00
PC:3b788     Total:19      MisBP:0   MisRate:0.00%    MPKI:0.00
PC:37aab4     Total:1      MisBP:0   MisRate:0.00%    MPKI:0.00
PC:3a5ac     Total:95      MisBP:0   MisRate:0.00%    MPKI:0.00
PC:8d960     Total:8      MisBP:0   MisRate:0.00%    MPKI:0.00
PC:11db0     Total:63      MisBP:0   MisRate:0.00%    MPKI:0.00
PC:3b78a     Total:38      MisBP:0   MisRate:0.00%    MPKI:0.00
PC:37aaa0     Total:1      MisBP:0   MisRate:0.00%    MPKI:0.00
PC:8d93a     Total:97      MisBP:0   MisRate:0.00%    MPKI:0.00
PC:3b764     Total:155      MisBP:0   MisRate:0.00%    MPKI:0.00
PC:37aa90     Total:1      MisBP:0   MisRate:0.00%    MPKI:0.00
PC:8d93c     Total:97      MisBP:0   MisRate:0.00%    MPKI:0.00
PC:3b766     Total:155      MisBP:0   MisRate:0.00%    MPKI:0.00
PC:8d93e     Total:97      MisBP:0   MisRate:0.00%    MPKI:0.00
PC:3b76a     Total:155      MisBP:0   MisRate:0.00%    MPKI:0.00
PC:8d942     Total:92      MisBP:0   MisRate:0.00%    MPKI:0.00
PC:3b76c     Total:155      MisBP:0   MisRate:0.00%    MPKI:0.00
PC:3b76e     Total:155      MisBP:0   MisRate:0.00%    MPKI:0.00
PC:8d946     Total:92      MisBP:0   MisRate:0.00%    MPKI:0.00
PC:3b772     Total:148      MisBP:0   MisRate:0.00%    MPKI:0.00
PC:11db4     Total:63      MisBP:0   MisRate:0.00%    MPKI:0.00
PC:8d94c     Total:92      MisBP:0   MisRate:0.00%    MPKI:0.00
PC:3b776     Total:144      MisBP:0   MisRate:0.00%    MPKI:0.00
PC:8d94e     Total:92      MisBP:0   MisRate:0.00%    MPKI:0.00
PC:3b778     Total:144      MisBP:0   MisRate:0.00%    MPKI:0.00
PC:37aaa4     Total:1      MisBP:0   MisRate:0.00%    MPKI:0.00
PC:3b77a     Total:144      MisBP:0   MisRate:0.00%    MPKI:0.00
PC:3b77c     Total:144      MisBP:0   MisRate:0.00%    MPKI:0.00
PC:37aaa8     Total:1      MisBP:0   MisRate:0.00%    MPKI:0.00
PC:8d954     Total:38      MisBP:0   MisRate:0.00%    MPKI:0.00
PC:11da4     Total:305      MisBP:0   MisRate:0.00%    MPKI:0.00
PC:8d956     Total:32      MisBP:0   MisRate:0.00%    MPKI:0.00
PC:8ead2     Total:59      MisBP:0   MisRate:0.00%    MPKI:0.00
PC:8d97c     Total:8      MisBP:0   MisRate:0.00%    MPKI:0.00
PC:3b700     Total:99      MisBP:0   MisRate:0.00%    MPKI:0.00
PC:3b702     Total:198      MisBP:0   MisRate:0.00%    MPKI:0.00
PC:3b706     Total:99      MisBP:0   MisRate:0.00%    MPKI:0.00
PC:3b70a     Total:119      MisBP:0   MisRate:0.00%    MPKI:0.00
PC:3b70c     Total:119      MisBP:0   MisRate:0.00%    MPKI:0.00
PC:8eac4     Total:81      MisBP:0   MisRate:0.00%    MPKI:0.00
PC:3b710     Total:142      MisBP:0   MisRate:0.00%    MPKI:0.00
PC:3b714     Total:142      MisBP:0   MisRate:0.00%    MPKI:0.00
PC:8eaca     Total:59      MisBP:0   MisRate:0.00%    MPKI:0.00
PC:8eace     Total:59      MisBP:0   MisRate:0.00%    MPKI:0.00
PC:3b71a     Total:128      MisBP:0   MisRate:0.00%    MPKI:0.00
PC:3b7a4     Total:34      MisBP:0   MisRate:0.00%    MPKI:0.00
PC:3b71e     Total:88      MisBP:0   MisRate:0.00%    MPKI:0.00
PC:8ead4     Total:59      MisBP:0   MisRate:0.00%    MPKI:0.00
PC:3b720     Total:88      MisBP:0   MisRate:0.00%    MPKI:0.00
PC:3b722     Total:88      MisBP:0   MisRate:0.00%    MPKI:0.00
PC:8ead8     Total:59      MisBP:0   MisRate:0.00%    MPKI:0.00
PC:3b724     Total:187      MisBP:0   MisRate:0.00%    MPKI:0.00
PC:3b8f0     Total:1376      MisBP:0   MisRate:0.00%    MPKI:0.00
PC:25fc0     Total:3916      MisBP:0   MisRate:0.00%    MPKI:0.00
PC:beffa56c     Total:2      MisBP:0   MisRate:0.00%    MPKI:0.00
PC:3b8f4     Total:136      MisBP:0   MisRate:0.00%    MPKI:0.00
PC:25fc4     Total:3916      MisBP:0   MisRate:0.00%    MPKI:0.00
PC:3a5bc     Total:2      MisBP:0   MisRate:0.00%    MPKI:0.00
PC:3b78e     Total:19      MisBP:0   MisRate:0.00%    MPKI:0.00
PC:8d966     Total:8      MisBP:0   MisRate:0.00%    MPKI:0.00
PC:11db8     Total:64      MisBP:0   MisRate:0.00%    MPKI:0.00
PC:3b792     Total:1      MisBP:0   MisRate:0.00%    MPKI:0.00
PC:11dba     Total:64      MisBP:0   MisRate:0.00%    MPKI:0.00
PC:3b794     Total:1      MisBP:0   MisRate:0.00%    MPKI:0.00
PC:3a5b8     Total:95      MisBP:0   MisRate:0.00%    MPKI:0.00
PC:8d96c     Total:8      MisBP:0   MisRate:0.00%    MPKI:0.00
PC:11dbc     Total:64      MisBP:0   MisRate:0.00%    MPKI:0.00
PC:3b796     Total:1      MisBP:0   MisRate:0.00%    MPKI:0.00
PC:8d96e     Total:8      MisBP:0   MisRate:0.00%    MPKI:0.00
PC:3b798     Total:1      MisBP:0   MisRate:0.00%    MPKI:0.00
PC:1c78a     Total:28160      MisBP:0   MisRate:0.00%    MPKI:0.00
PC:8d970     Total:8      MisBP:0   MisRate:0.00%    MPKI:0.00
PC:11dc0     Total:62      MisBP:0   MisRate:0.00%    MPKI:0.00
PC:3b79a     Total:1      MisBP:0   MisRate:0.00%    MPKI:0.00
PC:11dc2     Total:62      MisBP:0   MisRate:0.00%    MPKI:0.00
PC:3b79c     Total:1      MisBP:0   MisRate:0.00%    MPKI:0.00
PC:8d974     Total:8      MisBP:0   MisRate:0.00%    MPKI:0.00
PC:11dc6     Total:62      MisBP:0   MisRate:0.00%    MPKI:0.00
PC:3b7a0     Total:1      MisBP:0   MisRate:0.00%    MPKI:0.00
PC:8d978     Total:8      MisBP:0   MisRate:0.00%    MPKI:0.00
PC:3b7a2     Total:34      MisBP:0   MisRate:0.00%    MPKI:0.00
PC:11dca     Total:248      MisBP:0   MisRate:0.00%    MPKI:0.00
PC:3abca     Total:12      MisBP:0   MisRate:0.00%    MPKI:0.00
PC:3ac1c     Total:2517      MisBP:0   MisRate:0.00%    MPKI:0.00
PC:1c5ba     Total:10      MisBP:0   MisRate:0.00%    MPKI:0.00
PC:3ac20     Total:2517      MisBP:0   MisRate:0.00%    MPKI:0.00
PC:4fd84     Total:6157      MisBP:0   MisRate:0.00%    MPKI:0.00
PC:263aa     Total:2307      MisBP:0   MisRate:0.00%    MPKI:0.00
PC:1c5be     Total:10      MisBP:0   MisRate:0.00%    MPKI:0.00
PC:263ae     Total:2306      MisBP:0   MisRate:0.00%    MPKI:0.00
PC:3ac26     Total:672      MisBP:0   MisRate:0.00%    MPKI:0.00
PC:1c55a     Total:55013      MisBP:0   MisRate:0.00%    MPKI:0.00
PC:4fd24     Total:55      MisBP:0   MisRate:0.00%    MPKI:0.00
PC:2634a     Total:14704      MisBP:0   MisRate:0.00%    MPKI:0.00
PC:1c560     Total:1565      MisBP:0   MisRate:0.00%    MPKI:0.00
PC:1c5b6     Total:11      MisBP:0   MisRate:0.00%    MPKI:0.00
PC:4fd2e     Total:650      MisBP:0   MisRate:0.00%    MPKI:0.00
PC:26354     Total:13234      MisBP:0   MisRate:0.00%    MPKI:0.00
PC:3abce     Total:12      MisBP:0   MisRate:0.00%    MPKI:0.00
PC:1c56c     Total:1526      MisBP:0   MisRate:0.00%    MPKI:0.00
PC:3abd2     Total:2      MisBP:0   MisRate:0.00%    MPKI:0.00
PC:2635c     Total:61716      MisBP:0   MisRate:0.00%    MPKI:0.00
PC:17788     Total:1056      MisBP:0   MisRate:0.00%    MPKI:0.00
PC:41162     Total:13829      MisBP:0   MisRate:0.00%    MPKI:0.00
PC:8a2f4     Total:2      MisBP:0   MisRate:0.00%    MPKI:0.00
PC:36f40     Total:831      MisBP:0   MisRate:0.00%    MPKI:0.00
PC:36f44     Total:808      MisBP:0   MisRate:0.00%    MPKI:0.00
PC:8a2fc     Total:2      MisBP:0   MisRate:0.00%    MPKI:0.00
PC:26398     Total:2282      MisBP:0   MisRate:0.00%    MPKI:0.00
PC:3ac02     Total:2612      MisBP:0   MisRate:0.00%    MPKI:0.00
PC:1c5a0     Total:11      MisBP:0   MisRate:0.00%    MPKI:0.00
PC:3ac06     Total:2612      MisBP:0   MisRate:0.00%    MPKI:0.00
PC:26390     Total:2357      MisBP:0   MisRate:0.00%    MPKI:0.00
PC:99332     Total:2      MisBP:0   MisRate:0.00%    MPKI:0.00
PC:1c5a4     Total:11      MisBP:0   MisRate:0.00%    MPKI:0.00
PC:3ac0a     Total:2612      MisBP:0   MisRate:0.00%    MPKI:0.00
PC:4fd6e     Total:158      MisBP:0   MisRate:0.00%    MPKI:0.00
PC:26394     Total:2357      MisBP:0   MisRate:0.00%    MPKI:0.00
PC:1c5a6     Total:11      MisBP:0   MisRate:0.00%    MPKI:0.00
PC:3ac0c     Total:2612      MisBP:0   MisRate:0.00%    MPKI:0.00
PC:3ac0e     Total:2612      MisBP:0   MisRate:0.00%    MPKI:0.00
PC:36f48     Total:806      MisBP:0   MisRate:0.00%    MPKI:0.00
PC:9933a     Total:2      MisBP:0   MisRate:0.00%    MPKI:0.00
PC:1c5ac     Total:11      MisBP:0   MisRate:0.00%    MPKI:0.00
PC:3ac12     Total:2612      MisBP:0   MisRate:0.00%    MPKI:0.00
PC:4fd76     Total:12863      MisBP:0   MisRate:0.00%    MPKI:0.00
PC:2639c     Total:2282      MisBP:0   MisRate:0.00%    MPKI:0.00
PC:9933c     Total:2      MisBP:0   MisRate:0.00%    MPKI:0.00
PC:1c5ae     Total:11      MisBP:0   MisRate:0.00%    MPKI:0.00
PC:3ac14     Total:2612      MisBP:0   MisRate:0.00%    MPKI:0.00
PC:3ac16     Total:2543      MisBP:0   MisRate:0.00%    MPKI:0.00
PC:263a0     Total:2282      MisBP:0   MisRate:0.00%    MPKI:0.00
PC:263a4     Total:2307      MisBP:0   MisRate:0.00%    MPKI:0.00
PC:3ad32     Total:287      MisBP:0   MisRate:0.00%    MPKI:0.00
PC:3ad12     Total:283      MisBP:0   MisRate:0.00%    MPKI:0.00
PC:3ad18     Total:255      MisBP:0   MisRate:0.00%    MPKI:0.00
PC:3ad1a     Total:255      MisBP:0   MisRate:0.00%    MPKI:0.00
PC:3ad1c     Total:255      MisBP:0   MisRate:0.00%    MPKI:0.00
PC:3ad1e     Total:255      MisBP:0   MisRate:0.00%    MPKI:0.00
PC:3ad22     Total:292      MisBP:0   MisRate:0.00%    MPKI:0.00
PC:3ad24     Total:292      MisBP:0   MisRate:0.00%    MPKI:0.00
PC:3ad26     Total:289      MisBP:0   MisRate:0.00%    MPKI:0.00
PC:3ad28     Total:289      MisBP:0   MisRate:0.00%    MPKI:0.00
PC:3ad2c     Total:287      MisBP:0   MisRate:0.00%    MPKI:0.00
PC:3ad2e     Total:287      MisBP:0   MisRate:0.00%    MPKI:0.00
PC:3ad30     Total:287      MisBP:0   MisRate:0.00%    MPKI:0.00
PC:3ad10     Total:294      MisBP:0   MisRate:0.00%    MPKI:0.00
PC:3ad34     Total:287      MisBP:0   MisRate:0.00%    MPKI:0.00
PC:3ad36     Total:287      MisBP:0   MisRate:0.00%    MPKI:0.00
PC:3ad38     Total:280      MisBP:0   MisRate:0.00%    MPKI:0.00
PC:25408     Total:14460      MisBP:0   MisRate:0.00%    MPKI:0.00
PC:beff99b4     Total:4      MisBP:0   MisRate:0.00%    MPKI:0.00
PC:3ad3a     Total:279      MisBP:0   MisRate:0.00%    MPKI:0.00
PC:3ad3c     Total:279      MisBP:0   MisRate:0.00%    MPKI:0.00
PC:2540c     Total:86753      MisBP:0   MisRate:0.00%    MPKI:0.00
PC:beff99b8     Total:4      MisBP:0   MisRate:0.00%    MPKI:0.00
PC:3ad3e     Total:1078      MisBP:0   MisRate:0.00%    MPKI:0.00
PC:3ad40     Total:936      MisBP:0   MisRate:0.00%    MPKI:0.00
PC:beff99bc     Total:4      MisBP:0   MisRate:0.00%    MPKI:0.00
PC:4b7c4     Total:10      MisBP:0   MisRate:0.00%    MPKI:0.00
PC:4b7be     Total:10      MisBP:0   MisRate:0.00%    MPKI:0.00
PC:17792     Total:2112      MisBP:0   MisRate:0.00%    MPKI:0.00
PC:4116c     Total:11065      MisBP:0   MisRate:0.00%    MPKI:0.00
PC:36f4a     Total:789      MisBP:0   MisRate:0.00%    MPKI:0.00
PC:21de6     Total:105      MisBP:0   MisRate:0.00%    MPKI:0.00
PC:4b7c0     Total:10      MisBP:0   MisRate:0.00%    MPKI:0.00
PC:8a300     Total:1      MisBP:0   MisRate:0.00%    MPKI:0.00
PC:36f4c     Total:778      MisBP:0   MisRate:0.00%    MPKI:0.00
PC:17796     Total:1056      MisBP:0   MisRate:0.00%    MPKI:0.00
PC:8a302     Total:1      MisBP:0   MisRate:0.00%    MPKI:0.00
PC:36f4e     Total:777      MisBP:0   MisRate:0.00%    MPKI:0.00
PC:21dea     Total:15      MisBP:0   MisRate:0.00%    MPKI:0.00
PC:1c59c     Total:991      MisBP:0   MisRate:0.00%    MPKI:0.00
PC:36f50     Total:777      MisBP:0   MisRate:0.00%    MPKI:0.00
PC:21dec     Total:15      MisBP:0   MisRate:0.00%    MPKI:0.00
PC:4b7c6     Total:10      MisBP:0   MisRate:0.00%    MPKI:0.00
PC:3acfe     Total:357      MisBP:0   MisRate:0.00%    MPKI:0.00
PC:3ad00     Total:292      MisBP:0   MisRate:0.00%    MPKI:0.00
PC:3ad02     Total:294      MisBP:0   MisRate:0.00%    MPKI:0.00
PC:3ad06     Total:294      MisBP:0   MisRate:0.00%    MPKI:0.00
PC:3ad08     Total:294      MisBP:0   MisRate:0.00%    MPKI:0.00
PC:3ad0a     Total:294      MisBP:0   MisRate:0.00%    MPKI:0.00
PC:3ad0c     Total:294      MisBP:0   MisRate:0.00%    MPKI:0.00
PC:3ad0e     Total:294      MisBP:0   MisRate:0.00%    MPKI:0.00
PC:9565c     Total:1      MisBP:0   MisRate:0.00%    MPKI:0.00
PC:41a3e     Total:8386      MisBP:0   MisRate:0.00%    MPKI:0.00
PC:95f44     Total:2      MisBP:0   MisRate:0.00%    MPKI:0.00
PC:191b6     Total:1101      MisBP:0   MisRate:0.00%    MPKI:0.00
PC:18068     Total:103976      MisBP:0   MisRate:0.00%    MPKI:0.00
PC:2bff0     Total:2      MisBP:0   MisRate:0.00%    MPKI:0.00
PC:7f3a4     Total:6      MisBP:0   MisRate:0.00%    MPKI:0.00
PC:95f48     Total:2      MisBP:0   MisRate:0.00%    MPKI:0.00
PC:42b94     Total:77      MisBP:0   MisRate:0.00%    MPKI:0.00
PC:191ba     Total:1101      MisBP:0   MisRate:0.00%    MPKI:0.00
PC:41a44     Total:7445      MisBP:0   MisRate:0.00%    MPKI:0.00
PC:7f3a6     Total:6      MisBP:0   MisRate:0.00%    MPKI:0.00
PC:95f4a     Total:2      MisBP:0   MisRate:0.00%    MPKI:0.00
PC:188c4     Total:383954      MisBP:0   MisRate:0.00%    MPKI:0.00
PC:422a8     Total:52      MisBP:0   MisRate:0.00%    MPKI:0.00
PC:95f4e     Total:2      MisBP:0   MisRate:0.00%    MPKI:0.00
PC:191c0     Total:659      MisBP:0   MisRate:0.00%    MPKI:0.00
PC:95660     Total:1      MisBP:0   MisRate:0.00%    MPKI:0.00
PC:422ac     Total:52      MisBP:0   MisRate:0.00%    MPKI:0.00
PC:95f52     Total:2      MisBP:0   MisRate:0.00%    MPKI:0.00
PC:191c4     Total:659      MisBP:0   MisRate:0.00%    MPKI:0.00
PC:41a50     Total:7448      MisBP:0   MisRate:0.00%    MPKI:0.00
PC:7f3b2     Total:6      MisBP:0   MisRate:0.00%    MPKI:0.00
PC:95f56     Total:2      MisBP:0   MisRate:0.00%    MPKI:0.00
PC:42ba2     Total:3      MisBP:0   MisRate:0.00%    MPKI:0.00
PC:191c8     Total:659      MisBP:0   MisRate:0.00%    MPKI:0.00
PC:3b17c     Total:9      MisBP:0   MisRate:0.00%    MPKI:0.00
PC:268e0     Total:1303      MisBP:0   MisRate:0.00%    MPKI:0.00
PC:3b158     Total:5      MisBP:0   MisRate:0.00%    MPKI:0.00
PC:268e2     Total:3909      MisBP:0   MisRate:0.00%    MPKI:0.00
PC:8d330     Total:4      MisBP:0   MisRate:0.00%    MPKI:0.00
PC:3b15c     Total:5      MisBP:0   MisRate:0.00%    MPKI:0.00
PC:268e6     Total:4480      MisBP:0   MisRate:0.00%    MPKI:0.00
PC:8d334     Total:4      MisBP:0   MisRate:0.00%    MPKI:0.00
PC:3b162     Total:5      MisBP:0   MisRate:0.00%    MPKI:0.00
PC:8d33a     Total:2      MisBP:0   MisRate:0.00%    MPKI:0.00
PC:3b166     Total:5      MisBP:0   MisRate:0.00%    MPKI:0.00
PC:8d33e     Total:2      MisBP:0   MisRate:0.00%    MPKI:0.00
PC:3b178     Total:9      MisBP:0   MisRate:0.00%    MPKI:0.00
PC:95668     Total:2      MisBP:0   MisRate:0.00%    MPKI:0.00
PC:8d354     Total:1      MisBP:0   MisRate:0.00%    MPKI:0.00
PC:1aee6     Total:15976      MisBP:0   MisRate:0.00%    MPKI:0.00
PC:1aef4     Total:11816      MisBP:0   MisRate:0.00%    MPKI:0.00
PC:18f16     Total:1185      MisBP:0   MisRate:0.00%    MPKI:0.00
PC:42002     Total:60      MisBP:0   MisRate:0.00%    MPKI:0.00
PC:18f1a     Total:1185      MisBP:0   MisRate:0.00%    MPKI:0.00
PC:18f1e     Total:1185      MisBP:0   MisRate:0.00%    MPKI:0.00
PC:4200a     Total:144      MisBP:0   MisRate:0.00%    MPKI:0.00
PC:95f40     Total:2      MisBP:0   MisRate:0.00%    MPKI:0.00
PC:42b8c     Total:77      MisBP:0   MisRate:0.00%    MPKI:0.00
PC:191b2     Total:1120      MisBP:0   MisRate:0.00%    MPKI:0.00
PC:1c58c     Total:1102      MisBP:0   MisRate:0.00%    MPKI:0.00
PC:2636e     Total:9838      MisBP:0   MisRate:0.00%    MPKI:0.00
PC:1c582     Total:1102      MisBP:0   MisRate:0.00%    MPKI:0.00
PC:3abe8     Total:2924      MisBP:0   MisRate:0.00%    MPKI:0.00
PC:1c584     Total:1102      MisBP:0   MisRate:0.00%    MPKI:0.00
PC:3abea     Total:2924      MisBP:0   MisRate:0.00%    MPKI:0.00
PC:beffa920     Total:1      MisBP:0   MisRate:0.00%    MPKI:0.00
PC:4fd4e     Total:1      MisBP:0   MisRate:0.00%    MPKI:0.00
PC:26374     Total:9830      MisBP:0   MisRate:0.00%    MPKI:0.00
PC:1c588     Total:1102      MisBP:0   MisRate:0.00%    MPKI:0.00
PC:3abee     Total:2912      MisBP:0   MisRate:0.00%    MPKI:0.00
PC:beffa924     Total:1      MisBP:0   MisRate:0.00%    MPKI:0.00
PC:4fd52     Total:1      MisBP:0   MisRate:0.00%    MPKI:0.00
PC:4fd48     Total:1      MisBP:0   MisRate:0.00%    MPKI:0.00
PC:3abf2     Total:2921      MisBP:0   MisRate:0.00%    MPKI:0.00
PC:1c58e     Total:1102      MisBP:0   MisRate:0.00%    MPKI:0.00
PC:3abf4     Total:2921      MisBP:0   MisRate:0.00%    MPKI:0.00
PC:4fd58     Total:1      MisBP:0   MisRate:0.00%    MPKI:0.00
PC:2637e     Total:2425      MisBP:0   MisRate:0.00%    MPKI:0.00
PC:1c592     Total:1098      MisBP:0   MisRate:0.00%    MPKI:0.00
PC:3abf8     Total:2921      MisBP:0   MisRate:0.00%    MPKI:0.00
PC:1c596     Total:991      MisBP:0   MisRate:0.00%    MPKI:0.00
PC:3abfc     Total:2785      MisBP:0   MisRate:0.00%    MPKI:0.00
PC:3abfe     Total:2612      MisBP:0   MisRate:0.00%    MPKI:0.00
PC:26388     Total:2169      MisBP:0   MisRate:0.00%    MPKI:0.00
PC:1c576     Total:1523      MisBP:0   MisRate:0.00%    MPKI:0.00
PC:422b4     Total:56      MisBP:0   MisRate:0.00%    MPKI:0.00
PC:18078     Total:100658      MisBP:0   MisRate:0.00%    MPKI:0.00
PC:95f58     Total:2      MisBP:0   MisRate:0.00%    MPKI:0.00
PC:9566a     Total:2      MisBP:0   MisRate:0.00%    MPKI:0.00
PC:422b6     Total:56      MisBP:0   MisRate:0.00%    MPKI:0.00
PC:1c56e     Total:1526      MisBP:0   MisRate:0.00%    MPKI:0.00
PC:3abd4     Total:1055      MisBP:0   MisRate:0.00%    MPKI:0.00
PC:4fd38     Total:55      MisBP:0   MisRate:0.00%    MPKI:0.00
PC:1c572     Total:1523      MisBP:0   MisRate:0.00%    MPKI:0.00
PC:3abd8     Total:1055      MisBP:0   MisRate:0.00%    MPKI:0.00
PC:4fd3c     Total:51      MisBP:0   MisRate:0.00%    MPKI:0.00
PC:26362     Total:59653      MisBP:0   MisRate:0.00%    MPKI:0.00
PC:3ad44     Total:936      MisBP:0   MisRate:0.00%    MPKI:0.00
PC:3abdc     Total:1055      MisBP:0   MisRate:0.00%    MPKI:0.00
PC:1c57a     Total:1512      MisBP:0   MisRate:0.00%    MPKI:0.00
PC:3abe0     Total:1055      MisBP:0   MisRate:0.00%    MPKI:0.00
PC:4fd44     Total:48      MisBP:0   MisRate:0.00%    MPKI:0.00
PC:2636a     Total:50338      MisBP:0   MisRate:0.00%    MPKI:0.00
PC:1c57c     Total:1479      MisBP:0   MisRate:0.00%    MPKI:0.00
PC:3abe2     Total:2924      MisBP:0   MisRate:0.00%    MPKI:0.00
PC:beffa918     Total:1      MisBP:0   MisRate:0.00%    MPKI:0.00
PC:4fd46     Total:1      MisBP:0   MisRate:0.00%    MPKI:0.00
PC:1c57e     Total:1102      MisBP:0   MisRate:0.00%    MPKI:0.00
PC:3abe4     Total:2924      MisBP:0   MisRate:0.00%    MPKI:0.00
PC:4ff28     Total:7151      MisBP:0   MisRate:0.00%    MPKI:0.00
PC:ab884     Total:4      MisBP:0   MisRate:0.00%    MPKI:0.00
PC:81eaa     Total:201      MisBP:0   MisRate:0.00%    MPKI:0.00
PC:1c956     Total:45338      MisBP:0   MisRate:0.00%    MPKI:0.00
PC:3afbc     Total:33      MisBP:0   MisRate:0.00%    MPKI:0.00
PC:1ca0c     Total:36166      MisBP:0   MisRate:0.00%    MPKI:0.00
PC:267fc     Total:3      MisBP:0   MisRate:0.00%    MPKI:0.00
PC:1ca10     Total:35122      MisBP:0   MisRate:0.00%    MPKI:0.00
PC:3b076     Total:22      MisBP:0   MisRate:0.00%    MPKI:0.00
PC:26800     Total:1      MisBP:0   MisRate:0.00%    MPKI:0.00
PC:3adc0     Total:224      MisBP:0   MisRate:0.00%    MPKI:0.00
PC:2654a     Total:2662      MisBP:0   MisRate:0.00%    MPKI:0.00
PC:3adc4     Total:224      MisBP:0   MisRate:0.00%    MPKI:0.00
PC:1c940     Total:45365      MisBP:0   MisRate:0.00%    MPKI:0.00
PC:2654e     Total:2662      MisBP:0   MisRate:0.00%    MPKI:0.00
PC:8e17c     Total:22      MisBP:0   MisRate:0.00%    MPKI:0.00
PC:3adc8     Total:224      MisBP:0   MisRate:0.00%    MPKI:0.00
PC:26552     Total:2660      MisBP:0   MisRate:0.00%    MPKI:0.00
PC:1c764     Total:461108      MisBP:0   MisRate:0.00%    MPKI:0.00
PC:831b2     Total:10      MisBP:0   MisRate:0.00%    MPKI:0.00
PC:8e17e     Total:22      MisBP:0   MisRate:0.00%    MPKI:0.00
PC:3adca     Total:779      MisBP:0   MisRate:0.00%    MPKI:0.00
PC:26554     Total:2597      MisBP:0   MisRate:0.00%    MPKI:0.00
PC:1c766     Total:92212      MisBP:0   MisRate:0.00%    MPKI:0.00
PC:8e180     Total:22      MisBP:0   MisRate:0.00%    MPKI:0.00
PC:3adcc     Total:1584      MisBP:0   MisRate:0.00%    MPKI:0.00
PC:1b430     Total:2415      MisBP:0   MisRate:0.00%    MPKI:0.00
PC:1c9c0     Total:37502      MisBP:0   MisRate:0.00%    MPKI:0.00
PC:3b026     Total:244      MisBP:0   MisRate:0.00%    MPKI:0.00
PC:3b028     Total:244      MisBP:0   MisRate:0.00%    MPKI:0.00
PC:3af82     Total:33      MisBP:0   MisRate:0.00%    MPKI:0.00
PC:500e6     Total:2      MisBP:0   MisRate:0.00%    MPKI:0.00
PC:2670c     Total:500      MisBP:0   MisRate:0.00%    MPKI:0.00
PC:81e7a     Total:198      MisBP:0   MisRate:0.00%    MPKI:0.00
PC:1c926     Total:46941      MisBP:0   MisRate:0.00%    MPKI:0.00
PC:3af8c     Total:1      MisBP:0   MisRate:0.00%    MPKI:0.00
PC:500f0     Total:590      MisBP:0   MisRate:0.00%    MPKI:0.00
PC:26716     Total:75      MisBP:0   MisRate:0.00%    MPKI:0.00
PC:81e7e     Total:197      MisBP:0   MisRate:0.00%    MPKI:0.00
PC:4ff30     Total:7305      MisBP:0   MisRate:0.00%    MPKI:0.00
PC:1c92a     Total:46570      MisBP:0   MisRate:0.00%    MPKI:0.00
PC:3af90     Total:1      MisBP:0   MisRate:0.00%    MPKI:0.00
PC:500f4     Total:590      MisBP:0   MisRate:0.00%    MPKI:0.00
PC:2671a     Total:78      MisBP:0   MisRate:0.00%    MPKI:0.00
PC:1c936     Total:46833      MisBP:0   MisRate:0.00%    MPKI:0.00
PC:3af9c     Total:34      MisBP:0   MisRate:0.00%    MPKI:0.00
PC:3afa0     Total:34      MisBP:0   MisRate:0.00%    MPKI:0.00
PC:50104     Total:596      MisBP:0   MisRate:0.00%    MPKI:0.00
PC:2672a     Total:74      MisBP:0   MisRate:0.00%    MPKI:0.00
PC:81e94     Total:197      MisBP:0   MisRate:0.00%    MPKI:0.00
PC:1b446     Total:668      MisBP:0   MisRate:0.00%    MPKI:0.00
PC:1c780     Total:28158      MisBP:0   MisRate:0.00%    MPKI:0.00
PC:1c776     Total:92043      MisBP:0   MisRate:0.00%    MPKI:0.00
PC:8e190     Total:22      MisBP:0   MisRate:0.00%    MPKI:0.00
PC:3addc     Total:5636      MisBP:0   MisRate:0.00%    MPKI:0.00
PC:26566     Total:627      MisBP:0   MisRate:0.00%    MPKI:0.00
PC:1c77a     Total:85129      MisBP:0   MisRate:0.00%    MPKI:0.00
PC:8e194     Total:114      MisBP:0   MisRate:0.00%    MPKI:0.00
PC:3ade0     Total:2818      MisBP:0   MisRate:0.00%    MPKI:0.00
PC:4ff44     Total:39      MisBP:0   MisRate:0.00%    MPKI:0.00
PC:2656a     Total:626      MisBP:0   MisRate:0.00%    MPKI:0.00
PC:8e198     Total:114      MisBP:0   MisRate:0.00%    MPKI:0.00
PC:3ade4     Total:2812      MisBP:0   MisRate:0.00%    MPKI:0.00
PC:2656e     Total:626      MisBP:0   MisRate:0.00%    MPKI:0.00
PC:26564     Total:639      MisBP:0   MisRate:0.00%    MPKI:0.00
PC:831ce     Total:10      MisBP:0   MisRate:0.00%    MPKI:0.00
PC:3ade6     Total:2812      MisBP:0   MisRate:0.00%    MPKI:0.00
PC:1c784     Total:28158      MisBP:0   MisRate:0.00%    MPKI:0.00
PC:831d2     Total:10      MisBP:0   MisRate:0.00%    MPKI:0.00
PC:8e19e     Total:114      MisBP:0   MisRate:0.00%    MPKI:0.00
PC:3adea     Total:2812      MisBP:0   MisRate:0.00%    MPKI:0.00
PC:1c786     Total:28157      MisBP:0   MisRate:0.00%    MPKI:0.00
PC:8e1a0     Total:114      MisBP:0   MisRate:0.00%    MPKI:0.00
PC:3adec     Total:2778      MisBP:0   MisRate:0.00%    MPKI:0.00
PC:4ff50     Total:21      MisBP:0   MisRate:0.00%    MPKI:0.00
PC:26576     Total:625      MisBP:0   MisRate:0.00%    MPKI:0.00
PC:3adee     Total:2546      MisBP:0   MisRate:0.00%    MPKI:0.00
PC:831be     Total:10      MisBP:0   MisRate:0.00%    MPKI:0.00
PC:26556     Total:2595      MisBP:0   MisRate:0.00%    MPKI:0.00
PC:1c76a     Total:92212      MisBP:0   MisRate:0.00%    MPKI:0.00
PC:8e184     Total:22      MisBP:0   MisRate:0.00%    MPKI:0.00
PC:3add0     Total:792      MisBP:0   MisRate:0.00%    MPKI:0.00
PC:2655a     Total:2647      MisBP:0   MisRate:0.00%    MPKI:0.00
PC:4ff36     Total:1077      MisBP:0   MisRate:0.00%    MPKI:0.00
PC:1c76e     Total:92212      MisBP:0   MisRate:0.00%    MPKI:0.00
PC:8e188     Total:22      MisBP:0   MisRate:0.00%    MPKI:0.00
PC:3add4     Total:760      MisBP:0   MisRate:0.00%    MPKI:0.00
PC:4ff38     Total:1079      MisBP:0   MisRate:0.00%    MPKI:0.00
PC:2655e     Total:639      MisBP:0   MisRate:0.00%    MPKI:0.00
PC:1c770     Total:92049      MisBP:0   MisRate:0.00%    MPKI:0.00
PC:26700     Total:425      MisBP:0   MisRate:0.00%    MPKI:0.00
PC:8e18a     Total:22      MisBP:0   MisRate:0.00%    MPKI:0.00
PC:3add6     Total:760      MisBP:0   MisRate:0.00%    MPKI:0.00
PC:4ff3a     Total:1079      MisBP:0   MisRate:0.00%    MPKI:0.00
PC:26560     Total:639      MisBP:0   MisRate:0.00%    MPKI:0.00
PC:1c772     Total:92046      MisBP:0   MisRate:0.00%    MPKI:0.00
PC:8e18c     Total:22      MisBP:0   MisRate:0.00%    MPKI:0.00
PC:3add8     Total:760      MisBP:0   MisRate:0.00%    MPKI:0.00
PC:1c774     Total:92046      MisBP:0   MisRate:0.00%    MPKI:0.00
PC:831c2     Total:10      MisBP:0   MisRate:0.00%    MPKI:0.00
PC:3adda     Total:734      MisBP:0   MisRate:0.00%    MPKI:0.00
PC:4ff3e     Total:1056      MisBP:0   MisRate:0.00%    MPKI:0.00
PC:1c9f2     Total:1      MisBP:0   MisRate:0.00%    MPKI:0.00
PC:3b030     Total:957      MisBP:0   MisRate:0.00%    MPKI:0.00
PC:50194     Total:9      MisBP:0   MisRate:0.00%    MPKI:0.00
PC:267ba     Total:45      MisBP:0   MisRate:0.00%    MPKI:0.00
PC:1c9cc     Total:401      MisBP:0   MisRate:0.00%    MPKI:0.00
PC:267bc     Total:45      MisBP:0   MisRate:0.00%    MPKI:0.00
PC:1c9d0     Total:401      MisBP:0   MisRate:0.00%    MPKI:0.00
PC:3b036     Total:349      MisBP:0   MisRate:0.00%    MPKI:0.00
PC:5019a     Total:9      MisBP:0   MisRate:0.00%    MPKI:0.00
PC:267c0     Total:43      MisBP:0   MisRate:0.00%    MPKI:0.00
PC:3b03a     Total:349      MisBP:0   MisRate:0.00%    MPKI:0.00
PC:5019e     Total:9      MisBP:0   MisRate:0.00%    MPKI:0.00
PC:267c4     Total:43      MisBP:0   MisRate:0.00%    MPKI:0.00
PC:1c9ca     Total:401      MisBP:0   MisRate:0.00%    MPKI:0.00
PC:3b058     Total:133      MisBP:0   MisRate:0.00%    MPKI:0.00
PC:267e2     Total:8      MisBP:0   MisRate:0.00%    MPKI:0.00
PC:3b05e     Total:78      MisBP:0   MisRate:0.00%    MPKI:0.00
PC:1c9fe     Total:36244      MisBP:0   MisRate:0.00%    MPKI:0.00
PC:3b064     Total:91      MisBP:0   MisRate:0.00%    MPKI:0.00
PC:501c8     Total:101      MisBP:0   MisRate:0.00%    MPKI:0.00
PC:267ee     Total:4      MisBP:0   MisRate:0.00%    MPKI:0.00
PC:1ca02     Total:36244      MisBP:0   MisRate:0.00%    MPKI:0.00
PC:3b068     Total:91      MisBP:0   MisRate:0.00%    MPKI:0.00
PC:501cc     Total:101      MisBP:0   MisRate:0.00%    MPKI:0.00
PC:267f2     Total:4      MisBP:0   MisRate:0.00%    MPKI:0.00
PC:8e134     Total:11      MisBP:0   MisRate:0.00%    MPKI:0.00
PC:3ad6c     Total:7531      MisBP:0   MisRate:0.00%    MPKI:0.00
PC:3ad48     Total:936      MisBP:0   MisRate:0.00%    MPKI:0.00
PC:3ad4a     Total:1872      MisBP:0   MisRate:0.00%    MPKI:0.00
PC:3ad4e     Total:936      MisBP:0   MisRate:0.00%    MPKI:0.00
PC:3ad50     Total:936      MisBP:0   MisRate:0.00%    MPKI:0.00
PC:3ad52     Total:936      MisBP:0   MisRate:0.00%    MPKI:0.00
PC:3ad54     Total:911      MisBP:0   MisRate:0.00%    MPKI:0.00
PC:3ad56     Total:16500      MisBP:0   MisRate:0.00%    MPKI:0.00
PC:3ad5a     Total:8271      MisBP:0   MisRate:0.00%    MPKI:0.00
PC:3ad5c     Total:8271      MisBP:0   MisRate:0.00%    MPKI:0.00
PC:3ad60     Total:8191      MisBP:0   MisRate:0.00%    MPKI:0.00
PC:3ad64     Total:8202      MisBP:0   MisRate:0.00%    MPKI:0.00
PC:3ad66     Total:8200      MisBP:0   MisRate:0.00%    MPKI:0.00
PC:3ad80     Total:592      MisBP:0   MisRate:0.00%    MPKI:0.00
PC:3ad6e     Total:7514      MisBP:0   MisRate:0.00%    MPKI:0.00
PC:3ad74     Total:7923      MisBP:0   MisRate:0.00%    MPKI:0.00
PC:3ad76     Total:7905      MisBP:0   MisRate:0.00%    MPKI:0.00
PC:8e12c     Total:81      MisBP:0   MisRate:0.00%    MPKI:0.00
PC:3ad7a     Total:754      MisBP:0   MisRate:0.00%    MPKI:0.00
PC:8e130     Total:11      MisBP:0   MisRate:0.00%    MPKI:0.00
PC:3ad7c     Total:748      MisBP:0   MisRate:0.00%    MPKI:0.00
PC:3ad7e     Total:745      MisBP:0   MisRate:0.00%    MPKI:0.00
PC:1c9c4     Total:37498      MisBP:0   MisRate:0.00%    MPKI:0.00
PC:3b02a     Total:1300      MisBP:0   MisRate:0.00%    MPKI:0.00
PC:3b02c     Total:1300      MisBP:0   MisRate:0.00%    MPKI:0.00
PC:2653e     Total:2872      MisBP:0   MisRate:0.00%    MPKI:0.00
PC:26532     Total:2875      MisBP:0   MisRate:0.00%    MPKI:0.00
PC:8e160     Total:27      MisBP:0   MisRate:0.00%    MPKI:0.00
PC:3adac     Total:952      MisBP:0   MisRate:0.00%    MPKI:0.00
PC:4ff10     Total:7682      MisBP:0   MisRate:0.00%    MPKI:0.00
PC:26536     Total:2872      MisBP:0   MisRate:0.00%    MPKI:0.00
PC:8e162     Total:27      MisBP:0   MisRate:0.00%    MPKI:0.00
PC:3adae     Total:951      MisBP:0   MisRate:0.00%    MPKI:0.00
PC:3adb0     Total:951      MisBP:0   MisRate:0.00%    MPKI:0.00
PC:4ff14     Total:7668      MisBP:0   MisRate:0.00%    MPKI:0.00
PC:2653a     Total:2872      MisBP:0   MisRate:0.00%    MPKI:0.00
PC:3adb4     Total:948      MisBP:0   MisRate:0.00%    MPKI:0.00
PC:4ff18     Total:7668      MisBP:0   MisRate:0.00%    MPKI:0.00
PC:4ff0c     Total:7682      MisBP:0   MisRate:0.00%    MPKI:0.00
PC:26540     Total:2663      MisBP:0   MisRate:0.00%    MPKI:0.00
PC:3adb8     Total:324      MisBP:0   MisRate:0.00%    MPKI:0.00
PC:4ff1c     Total:7668      MisBP:0   MisRate:0.00%    MPKI:0.00
PC:26542     Total:2663      MisBP:0   MisRate:0.00%    MPKI:0.00
PC:8e16e     Total:22      MisBP:0   MisRate:0.00%    MPKI:0.00
PC:3adba     Total:324      MisBP:0   MisRate:0.00%    MPKI:0.00
PC:3adbc     Total:325      MisBP:0   MisRate:0.00%    MPKI:0.00
PC:4ff20     Total:7178      MisBP:0   MisRate:0.00%    MPKI:0.00
PC:26546     Total:2663      MisBP:0   MisRate:0.00%    MPKI:0.00
PC:1c910     Total:46955      MisBP:0   MisRate:0.00%    MPKI:0.00
PC:500da     Total:2      MisBP:0   MisRate:0.00%    MPKI:0.00
PC:3ad9e     Total:921      MisBP:0   MisRate:0.00%    MPKI:0.00
PC:3ad88     Total:708      MisBP:0   MisRate:0.00%    MPKI:0.00
PC:8e13e     Total:124      MisBP:0   MisRate:0.00%    MPKI:0.00
PC:3ad8a     Total:708      MisBP:0   MisRate:0.00%    MPKI:0.00
PC:8e140     Total:102      MisBP:0   MisRate:0.00%    MPKI:0.00
PC:3ad8c     Total:708      MisBP:0   MisRate:0.00%    MPKI:0.00
PC:8e144     Total:102      MisBP:0   MisRate:0.00%    MPKI:0.00
PC:8e148     Total:102      MisBP:0   MisRate:0.00%    MPKI:0.00
PC:3ad94     Total:572      MisBP:0   MisRate:0.00%    MPKI:0.00
PC:8e14c     Total:102      MisBP:0   MisRate:0.00%    MPKI:0.00
PC:3ad98     Total:188      MisBP:0   MisRate:0.00%    MPKI:0.00
PC:4fefe     Total:1091      MisBP:0   MisRate:0.00%    MPKI:0.00
PC:26524     Total:229      MisBP:0   MisRate:0.00%    MPKI:0.00
PC:12036     Total:6      MisBP:0   MisRate:0.00%    MPKI:0.00
PC:4ff02     Total:1091      MisBP:0   MisRate:0.00%    MPKI:0.00
PC:8e154     Total:30      MisBP:0   MisRate:0.00%    MPKI:0.00
PC:3ada0     Total:921      MisBP:0   MisRate:0.00%    MPKI:0.00
PC:4ff04     Total:1091      MisBP:0   MisRate:0.00%    MPKI:0.00
PC:2652a     Total:25      MisBP:0   MisRate:0.00%    MPKI:0.00
PC:8e156     Total:30      MisBP:0   MisRate:0.00%    MPKI:0.00
PC:3ada2     Total:921      MisBP:0   MisRate:0.00%    MPKI:0.00
PC:8e15a     Total:30      MisBP:0   MisRate:0.00%    MPKI:0.00
PC:3ada6     Total:862      MisBP:0   MisRate:0.00%    MPKI:0.00
PC:26530     Total:2876      MisBP:0   MisRate:0.00%    MPKI:0.00
PC:8e15c     Total:30      MisBP:0   MisRate:0.00%    MPKI:0.00
PC:37784     Total:68      MisBP:0   MisRate:0.00%    MPKI:0.00
PC:75792     Total:5      MisBP:0   MisRate:0.00%    MPKI:0.00
PC:9655a     Total:1      MisBP:0   MisRate:0.00%    MPKI:0.00
PC:197cc     Total:119768      MisBP:0   MisRate:0.00%    MPKI:0.00
PC:37e32     Total:418      MisBP:0   MisRate:0.00%    MPKI:0.00
PC:4c6a8     Total:19      MisBP:0   MisRate:0.00%    MPKI:0.00
PC:8b1e8     Total:2      MisBP:0   MisRate:0.00%    MPKI:0.00
PC:37e34     Total:418      MisBP:0   MisRate:0.00%    MPKI:0.00
PC:19110     Total:8875      MisBP:0   MisRate:0.00%    MPKI:0.00
PC:3777c     Total:53      MisBP:0   MisRate:0.00%    MPKI:0.00
PC:95ea4     Total:4      MisBP:0   MisRate:0.00%    MPKI:0.00
PC:42af0     Total:1221      MisBP:0   MisRate:0.00%    MPKI:0.00
PC:19116     Total:8805      MisBP:0   MisRate:0.00%    MPKI:0.00
PC:4c6a6     Total:19      MisBP:0   MisRate:0.00%    MPKI:0.00
PC:42af8     Total:182      MisBP:0   MisRate:0.00%    MPKI:0.00
PC:1911e     Total:8580      MisBP:0   MisRate:0.00%    MPKI:0.00
PC:18830     Total:18988      MisBP:0   MisRate:0.00%    MPKI:0.00
PC:4220a     Total:130      MisBP:0   MisRate:0.00%    MPKI:0.00
PC:19132     Total:3665      MisBP:0   MisRate:0.00%    MPKI:0.00
PC:42220     Total:120      MisBP:0   MisRate:0.00%    MPKI:0.00
PC:42b10     Total:282      MisBP:0   MisRate:0.00%    MPKI:0.00
PC:19136     Total:3665      MisBP:0   MisRate:0.00%    MPKI:0.00
PC:37aa6     Total:54      MisBP:0   MisRate:0.00%    MPKI:0.00
PC:9e4f4     Total:728006      MisBP:0   MisRate:0.00%    MPKI:0.00
PC:75408     Total:10      MisBP:0   MisRate:0.00%    MPKI:0.00
PC:961ce     Total:2      MisBP:0   MisRate:0.00%    MPKI:0.00
PC:9315a     Total:132      MisBP:0   MisRate:0.00%    MPKI:0.00
PC:9654a     Total:3      MisBP:0   MisRate:0.00%    MPKI:0.00
PC:197bc     Total:24157      MisBP:0   MisRate:0.00%    MPKI:0.00
PC:37e22     Total:418      MisBP:0   MisRate:0.00%    MPKI:0.00
PC:75784     Total:5      MisBP:0   MisRate:0.00%    MPKI:0.00
PC:9654e     Total:1      MisBP:0   MisRate:0.00%    MPKI:0.00
PC:197c0     Total:239578      MisBP:0   MisRate:0.00%    MPKI:0.00
PC:8b1da     Total:2      MisBP:0   MisRate:0.00%    MPKI:0.00
PC:37e26     Total:418      MisBP:0   MisRate:0.00%    MPKI:0.00
PC:4bdae     Total:4      MisBP:0   MisRate:0.00%    MPKI:0.00
PC:75788     Total:5      MisBP:0   MisRate:0.00%    MPKI:0.00
PC:3fda6     Total:4      MisBP:0   MisRate:0.00%    MPKI:0.00
PC:163cc     Total:49580      MisBP:0   MisRate:0.00%    MPKI:0.00
PC:37aac     Total:54      MisBP:0   MisRate:0.00%    MPKI:0.00
PC:8b1dc     Total:1      MisBP:0   MisRate:0.00%    MPKI:0.00
PC:37e28     Total:418      MisBP:0   MisRate:0.00%    MPKI:0.00
PC:4c69e     Total:19      MisBP:0   MisRate:0.00%    MPKI:0.00
PC:7578a     Total:5      MisBP:0   MisRate:0.00%    MPKI:0.00
PC:9315e     Total:132      MisBP:0   MisRate:0.00%    MPKI:0.00
PC:8b1e0     Total:1      MisBP:0   MisRate:0.00%    MPKI:0.00
PC:37e2c     Total:418      MisBP:0   MisRate:0.00%    MPKI:0.00
PC:96558     Total:1      MisBP:0   MisRate:0.00%    MPKI:0.00
PC:197ca     Total:119769      MisBP:0   MisRate:0.00%    MPKI:0.00
PC:8b1e4     Total:1      MisBP:0   MisRate:0.00%    MPKI:0.00
PC:37e30     Total:418      MisBP:0   MisRate:0.00%    MPKI:0.00
PC:1b558     Total:45544      MisBP:0   MisRate:0.00%    MPKI:0.00
PC:24ee2     Total:92632      MisBP:0   MisRate:0.00%    MPKI:0.00
PC:3975e     Total:6      MisBP:0   MisRate:0.00%    MPKI:0.00
PC:24ee8     Total:92385      MisBP:0   MisRate:0.00%    MPKI:0.00
PC:39764     Total:6      MisBP:0   MisRate:0.00%    MPKI:0.00
PC:24eee     Total:28962      MisBP:0   MisRate:0.00%    MPKI:0.00
PC:3976c     Total:6      MisBP:0   MisRate:0.00%    MPKI:0.00
PC:39776     Total:6      MisBP:0   MisRate:0.00%    MPKI:0.00
PC:24f00     Total:27631      MisBP:0   MisRate:0.00%    MPKI:0.00
PC:3977e     Total:6      MisBP:0   MisRate:0.00%    MPKI:0.00
PC:24f08     Total:96921      MisBP:0   MisRate:0.00%    MPKI:0.00
PC:1b504     Total:6637      MisBP:0   MisRate:0.00%    MPKI:0.00
PC:81f52     Total:12      MisBP:0   MisRate:0.00%    MPKI:0.00
PC:24ed8     Total:105580      MisBP:0   MisRate:0.00%    MPKI:0.00
PC:81fa6     Total:13      MisBP:0   MisRate:0.00%    MPKI:0.00
PC:24f46     Total:288315      MisBP:0   MisRate:0.00%    MPKI:0.00
PC:4ed52     Total:4      MisBP:0   MisRate:0.00%    MPKI:0.00
PC:25378     Total:19      MisBP:0   MisRate:0.00%    MPKI:0.00
PC:4e046     Total:180      MisBP:0   MisRate:0.00%    MPKI:0.00
PC:4ed66     Total:2      MisBP:0   MisRate:0.00%    MPKI:0.00
PC:2538c     Total:13      MisBP:0   MisRate:0.00%    MPKI:0.00
PC:4e04e     Total:39      MisBP:0   MisRate:0.00%    MPKI:0.00
PC:24f62     Total:253745      MisBP:0   MisRate:0.00%    MPKI:0.00
PC:4e052     Total:39      MisBP:0   MisRate:0.00%    MPKI:0.00
PC:77a2e     Total:4      MisBP:0   MisRate:0.00%    MPKI:0.00
PC:4e054     Total:39      MisBP:0   MisRate:0.00%    MPKI:0.00
PC:9620c     Total:2      MisBP:0   MisRate:0.00%    MPKI:0.00
PC:4c322     Total:274      MisBP:0   MisRate:0.00%    MPKI:0.00
PC:182f4     Total:23      MisBP:0   MisRate:0.00%    MPKI:0.00
PC:41cce     Total:2127      MisBP:0   MisRate:0.00%    MPKI:0.00
PC:961d4     Total:2      MisBP:0   MisRate:0.00%    MPKI:0.00
PC:19446     Total:1718      MisBP:0   MisRate:0.00%    MPKI:0.00
PC:37ac4     Total:4372      MisBP:0   MisRate:0.00%    MPKI:0.00
PC:41ce6     Total:740      MisBP:0   MisRate:0.00%    MPKI:0.00
PC:1945e     Total:1180      MisBP:0   MisRate:0.00%    MPKI:0.00
PC:41d06     Total:2218      MisBP:0   MisRate:0.00%    MPKI:0.00
PC:37ae4     Total:184      MisBP:0   MisRate:0.00%    MPKI:0.00
PC:4c35a     Total:36      MisBP:0   MisRate:0.00%    MPKI:0.00
PC:42e58     Total:1      MisBP:0   MisRate:0.00%    MPKI:0.00
PC:75780     Total:5      MisBP:0   MisRate:0.00%    MPKI:0.00
PC:1947e     Total:1399      MisBP:0   MisRate:0.00%    MPKI:0.00
PC:3770e     Total:628      MisBP:0   MisRate:0.00%    MPKI:0.00
PC:75070     Total:232      MisBP:0   MisRate:0.00%    MPKI:0.00
PC:9557a     Total:5      MisBP:0   MisRate:0.00%    MPKI:0.00
PC:421c6     Total:162      MisBP:0   MisRate:0.00%    MPKI:0.00
PC:37740     Total:654      MisBP:0   MisRate:0.00%    MPKI:0.00
PC:1b0e4     Total:10457      MisBP:0   MisRate:0.00%    MPKI:0.00
PC:3974a     Total:59      MisBP:0   MisRate:0.00%    MPKI:0.00
PC:24ed4     Total:111333      MisBP:0   MisRate:0.00%    MPKI:0.00
PC:1b0e8     Total:10260      MisBP:0   MisRate:0.00%    MPKI:0.00
PC:3974e     Total:59      MisBP:0   MisRate:0.00%    MPKI:0.00
PC:7543a     Total:32      MisBP:0   MisRate:0.00%    MPKI:0.00
PC:755d0     Total:2      MisBP:0   MisRate:0.00%    MPKI:0.00
PC:961f8     Total:4      MisBP:0   MisRate:0.00%    MPKI:0.00
PC:1946a     Total:1345      MisBP:0   MisRate:0.00%    MPKI:0.00
PC:37ad0     Total:1078      MisBP:0   MisRate:0.00%    MPKI:0.00
PC:9ee0c     Total:1470      MisBP:0   MisRate:0.00%    MPKI:0.00
PC:75432     Total:32      MisBP:0   MisRate:0.00%    MPKI:0.00
PC:4c346     Total:57      MisBP:0   MisRate:0.00%    MPKI:0.00
PC:41cf2     Total:2166      MisBP:0   MisRate:0.00%    MPKI:0.00
PC:37c76     Total:1499      MisBP:0   MisRate:0.00%    MPKI:0.00
PC:4c4ec     Total:42      MisBP:0   MisRate:0.00%    MPKI:0.00
PC:37ad8     Total:1078      MisBP:0   MisRate:0.00%    MPKI:0.00
PC:9ee14     Total:1470      MisBP:0   MisRate:0.00%    MPKI:0.00
PC:4c4e4     Total:42      MisBP:0   MisRate:0.00%    MPKI:0.00
PC:950ae     Total:9      MisBP:0   MisRate:0.00%    MPKI:0.00
PC:41cfa     Total:2165      MisBP:0   MisRate:0.00%    MPKI:0.00
PC:1962e     Total:78534      MisBP:0   MisRate:0.00%    MPKI:0.00
PC:37c94     Total:1497      MisBP:0   MisRate:0.00%    MPKI:0.00
PC:4c50a     Total:32      MisBP:0   MisRate:0.00%    MPKI:0.00
PC:9efd0     Total:10      MisBP:0   MisRate:0.00%    MPKI:0.00
PC:755f6     Total:18      MisBP:0   MisRate:0.00%    MPKI:0.00
PC:37af6     Total:496      MisBP:0   MisRate:0.00%    MPKI:0.00
PC:75458     Total:33      MisBP:0   MisRate:0.00%    MPKI:0.00
PC:75d46     Total:30      MisBP:0   MisRate:0.00%    MPKI:0.00
PC:4c36c     Total:41      MisBP:0   MisRate:0.00%    MPKI:0.00
PC:41d18     Total:2849      MisBP:0   MisRate:0.00%    MPKI:0.00
PC:1958a     Total:8093      MisBP:0   MisRate:0.00%    MPKI:0.00
PC:37bae     Total:425      MisBP:0   MisRate:0.00%    MPKI:0.00
PC:4c424     Total:3      MisBP:0   MisRate:0.00%    MPKI:0.00
PC:41dd6     Total:230      MisBP:0   MisRate:0.00%    MPKI:0.00
PC:1954e     Total:4207      MisBP:0   MisRate:0.00%    MPKI:0.00
PC:37bb4     Total:4      MisBP:0   MisRate:0.00%    MPKI:0.00
PC:4c42a     Total:3      MisBP:0   MisRate:0.00%    MPKI:0.00
PC:37bb8     Total:4      MisBP:0   MisRate:0.00%    MPKI:0.00
PC:19556     Total:10783      MisBP:0   MisRate:0.00%    MPKI:0.00
PC:37bbc     Total:4      MisBP:0   MisRate:0.00%    MPKI:0.00
PC:4c432     Total:5      MisBP:0   MisRate:0.00%    MPKI:0.00
PC:18438     Total:1928      MisBP:0   MisRate:0.00%    MPKI:0.00
PC:41e12     Total:17      MisBP:0   MisRate:0.00%    MPKI:0.00
PC:41ebe     Total:92      MisBP:0   MisRate:0.00%    MPKI:0.00
PC:37bf0     Total:2874      MisBP:0   MisRate:0.00%    MPKI:0.00
PC:195a4     Total:3785      MisBP:0   MisRate:0.00%    MPKI:0.00
PC:37c0a     Total:423      MisBP:0   MisRate:0.00%    MPKI:0.00
PC:4c480     Total:16      MisBP:0   MisRate:0.00%    MPKI:0.00
PC:7556c     Total:15      MisBP:0   MisRate:0.00%    MPKI:0.00
PC:37c1a     Total:417      MisBP:0   MisRate:0.00%    MPKI:0.00
PC:4c490     Total:16      MisBP:0   MisRate:0.00%    MPKI:0.00
PC:7557c     Total:15      MisBP:0   MisRate:0.00%    MPKI:0.00
PC:184b6     Total:1      MisBP:0   MisRate:0.00%    MPKI:0.00
PC:41e90     Total:776      MisBP:0   MisRate:0.00%    MPKI:0.00
PC:37c6e     Total:1499      MisBP:0   MisRate:0.00%    MPKI:0.00
PC:75768     Total:34      MisBP:0   MisRate:0.00%    MPKI:0.00
PC:755ca     Total:2      MisBP:0   MisRate:0.00%    MPKI:0.00
PC:41cec     Total:2724      MisBP:0   MisRate:0.00%    MPKI:0.00
PC:1842c     Total:3665      MisBP:0   MisRate:0.00%    MPKI:0.00
PC:951ba     Total:2      MisBP:0   MisRate:0.00%    MPKI:0.00
PC:41e06     Total:235      MisBP:0   MisRate:0.00%    MPKI:0.00
PC:1957e     Total:6377      MisBP:0   MisRate:0.00%    MPKI:0.00
PC:37be4     Total:2527      MisBP:0   MisRate:0.00%    MPKI:0.00
PC:18434     Total:1928      MisBP:0   MisRate:0.00%    MPKI:0.00
PC:19586     Total:8093      MisBP:0   MisRate:0.00%    MPKI:0.00
PC:4c462     Total:24      MisBP:0   MisRate:0.00%    MPKI:0.00
PC:8b1ba     Total:3      MisBP:0   MisRate:0.00%    MPKI:0.00
PC:37e06     Total:428      MisBP:0   MisRate:0.00%    MPKI:0.00
PC:9efa4     Total:10      MisBP:0   MisRate:0.00%    MPKI:0.00
PC:197ae     Total:24636      MisBP:0   MisRate:0.00%    MPKI:0.00
PC:4bd9c     Total:4      MisBP:0   MisRate:0.00%    MPKI:0.00
PC:75776     Total:33      MisBP:0   MisRate:0.00%    MPKI:0.00
PC:4c68a     Total:2      MisBP:0   MisRate:0.00%    MPKI:0.00
PC:197b0     Total:24636      MisBP:0   MisRate:0.00%    MPKI:0.00
PC:37e16     Total:428      MisBP:0   MisRate:0.00%    MPKI:0.00
PC:197b4     Total:24636      MisBP:0   MisRate:0.00%    MPKI:0.00
PC:37e1a     Total:428      MisBP:0   MisRate:0.00%    MPKI:0.00
PC:197b8     Total:24635      MisBP:0   MisRate:0.00%    MPKI:0.00
PC:8b1d2     Total:5      MisBP:0   MisRate:0.00%    MPKI:0.00
PC:37e1e     Total:418      MisBP:0   MisRate:0.00%    MPKI:0.00
PC:41e82     Total:712      MisBP:0   MisRate:0.00%    MPKI:0.00
PC:19636     Total:76043      MisBP:0   MisRate:0.00%    MPKI:0.00
PC:37c9c     Total:465      MisBP:0   MisRate:0.00%    MPKI:0.00
PC:4c512     Total:32      MisBP:0   MisRate:0.00%    MPKI:0.00
PC:9efd8     Total:10      MisBP:0   MisRate:0.00%    MPKI:0.00
PC:755fe     Total:12      MisBP:0   MisRate:0.00%    MPKI:0.00
PC:41d20     Total:2847      MisBP:0   MisRate:0.00%    MPKI:0.00
PC:195e6     Total:4713      MisBP:0   MisRate:0.00%    MPKI:0.00
PC:37c4c     Total:1406      MisBP:0   MisRate:0.00%    MPKI:0.00
PC:4c4c2     Total:15      MisBP:0   MisRate:0.00%    MPKI:0.00
PC:9ef88     Total:10      MisBP:0   MisRate:0.00%    MPKI:0.00
PC:755ae     Total:21      MisBP:0   MisRate:0.00%    MPKI:0.00
PC:195fa     Total:4526      MisBP:0   MisRate:0.00%    MPKI:0.00
PC:24f68     Total:253619      MisBP:0   MisRate:0.00%    MPKI:0.00
PC:37c60     Total:1218      MisBP:0   MisRate:0.00%    MPKI:0.00
PC:9ef9c     Total:10      MisBP:0   MisRate:0.00%    MPKI:0.00
PC:755c2     Total:7      MisBP:0   MisRate:0.00%    MPKI:0.00
PC:195fe     Total:3820      MisBP:0   MisRate:0.00%    MPKI:0.00
PC:184ac     Total:2      MisBP:0   MisRate:0.00%    MPKI:0.00
PC:37c64     Total:1218      MisBP:0   MisRate:0.00%    MPKI:0.00
PC:4c4da     Total:42      MisBP:0   MisRate:0.00%    MPKI:0.00
PC:9efa0     Total:10      MisBP:0   MisRate:0.00%    MPKI:0.00
PC:755c6     Total:7      MisBP:0   MisRate:0.00%    MPKI:0.00
PC:19602     Total:3820      MisBP:0   MisRate:0.00%    MPKI:0.00
PC:4c4de     Total:42      MisBP:0   MisRate:0.00%    MPKI:0.00
PC:28720     Total:462      MisBP:0   MisRate:0.00%    MPKI:0.00
PC:3cea4     Total:2323      MisBP:0   MisRate:0.00%    MPKI:0.00
PC:2862e     Total:867      MisBP:0   MisRate:0.00%    MPKI:0.00
PC:51330     Total:2143      MisBP:0   MisRate:0.00%    MPKI:0.00
PC:3cf3c     Total:2      MisBP:0   MisRate:0.00%    MPKI:0.00
PC:51394     Total:7835      MisBP:0   MisRate:0.00%    MPKI:0.00
PC:513ac     Total:11471      MisBP:0   MisRate:0.00%    MPKI:0.00
PC:3cf78     Total:25967      MisBP:0   MisRate:0.00%    MPKI:0.00
PC:3cf8a     Total:23127      MisBP:0   MisRate:0.00%    MPKI:0.00
PC:279f4     Total:38      MisBP:0   MisRate:0.00%    MPKI:0.00
PC:513ce     Total:2233      MisBP:0   MisRate:0.00%    MPKI:0.00
PC:3cf96     Total:22158      MisBP:0   MisRate:0.00%    MPKI:0.00
PC:beffcccc     Total:1      MisBP:0   MisRate:0.00%    MPKI:0.00
PC:2862a     Total:868      MisBP:0   MisRate:0.00%    MPKI:0.00
PC:41d0a     Total:2218      MisBP:0   MisRate:0.00%    MPKI:0.00
PC:41d24     Total:2666      MisBP:0   MisRate:0.00%    MPKI:0.00
PC:1a90a     Total:1572830      MisBP:0   MisRate:0.00%    MPKI:0.00
PC:38f70     Total:4329      MisBP:0   MisRate:0.00%    MPKI:0.00
PC:9e4c4     Total:19308      MisBP:0   MisRate:0.00%    MPKI:0.00
PC:1a90e     Total:786177      MisBP:0   MisRate:0.00%    MPKI:0.00
PC:38f74     Total:4329      MisBP:0   MisRate:0.00%    MPKI:0.00
PC:1a91a     Total:783126      MisBP:0   MisRate:0.00%    MPKI:0.00
PC:38f80     Total:3515      MisBP:0   MisRate:0.00%    MPKI:0.00
PC:9e4d4     Total:19108      MisBP:0   MisRate:0.00%    MPKI:0.00
PC:753e8     Total:20      MisBP:0   MisRate:0.00%    MPKI:0.00
PC:4c2fc     Total:280      MisBP:0   MisRate:0.00%    MPKI:0.00
PC:75d06     Total:30      MisBP:0   MisRate:0.00%    MPKI:0.00
PC:260b6     Total:642      MisBP:0   MisRate:0.00%    MPKI:0.00
PC:3b1ae     Total:187      MisBP:0   MisRate:0.00%    MPKI:0.00
PC:3b1b2     Total:187      MisBP:0   MisRate:0.00%    MPKI:0.00
PC:3b1c6     Total:67      MisBP:0   MisRate:0.00%    MPKI:0.00
PC:8d39e     Total:1      MisBP:0   MisRate:0.00%    MPKI:0.00
PC:3b1ca     Total:67      MisBP:0   MisRate:0.00%    MPKI:0.00
PC:3b1ce     Total:67      MisBP:0   MisRate:0.00%    MPKI:0.00
PC:8d3a6     Total:1      MisBP:0   MisRate:0.00%    MPKI:0.00
PC:3b1d2     Total:37      MisBP:0   MisRate:0.00%    MPKI:0.00
PC:8d3aa     Total:1      MisBP:0   MisRate:0.00%    MPKI:0.00
PC:37ab6     Total:1838      MisBP:0   MisRate:0.00%    MPKI:0.00
PC:75418     Total:56      MisBP:0   MisRate:0.00%    MPKI:0.00
PC:1a936     Total:220107      MisBP:0   MisRate:0.00%    MPKI:0.00
PC:4c32c     Total:251      MisBP:0   MisRate:0.00%    MPKI:0.00
PC:37aba     Total:1838      MisBP:0   MisRate:0.00%    MPKI:0.00
PC:74b2e     Total:45      MisBP:0   MisRate:0.00%    MPKI:0.00
PC:9e508     Total:2158273      MisBP:0   MisRate:0.00%    MPKI:0.00
PC:7541c     Total:56      MisBP:0   MisRate:0.00%    MPKI:0.00
PC:41cdc     Total:2136      MisBP:0   MisRate:0.00%    MPKI:0.00
PC:3d2ba     Total:4079      MisBP:0   MisRate:0.00%    MPKI:0.00
PC:28a44     Total:912      MisBP:0   MisRate:0.00%    MPKI:0.00
PC:5172a     Total:1780      MisBP:0   MisRate:0.00%    MPKI:0.00
PC:2863e     Total:853      MisBP:0   MisRate:0.00%    MPKI:0.00
PC:3cea0     Total:10408      MisBP:0   MisRate:0.00%    MPKI:0.00
PC:3f514     Total:12590      MisBP:0   MisRate:0.00%    MPKI:0.00
PC:928b2     Total:4      MisBP:0   MisRate:0.00%    MPKI:0.00
PC:15b24     Total:40153      MisBP:0   MisRate:0.00%    MPKI:0.00
PC:3f4fe     Total:5766      MisBP:0   MisRate:0.00%    MPKI:0.00
PC:16c7a     Total:1925      MisBP:0   MisRate:0.00%    MPKI:0.00
PC:3fd66     Total:122      MisBP:0   MisRate:0.00%    MPKI:0.00
PC:928b6     Total:20      MisBP:0   MisRate:0.00%    MPKI:0.00
PC:15b28     Total:267040      MisBP:0   MisRate:0.00%    MPKI:0.00
PC:3f502     Total:5764      MisBP:0   MisRate:0.00%    MPKI:0.00
PC:15b36     Total:132923      MisBP:0   MisRate:0.00%    MPKI:0.00
PC:3f510     Total:12590      MisBP:0   MisRate:0.00%    MPKI:0.00
PC:928c8     Total:2      MisBP:0   MisRate:0.00%    MPKI:0.00
PC:15b3a     Total:132776      MisBP:0   MisRate:0.00%    MPKI:0.00
PC:3fd62     Total:123      MisBP:0   MisRate:0.00%    MPKI:0.00
PC:3f554     Total:14574      MisBP:0   MisRate:0.00%    MPKI:0.00
PC:42e7e     Total:2      MisBP:0   MisRate:0.00%    MPKI:0.00
PC:96232     Total:3      MisBP:0   MisRate:0.00%    MPKI:0.00
PC:194a4     Total:1225      MisBP:0   MisRate:0.00%    MPKI:0.00
PC:41d2c     Total:2635      MisBP:0   MisRate:0.00%    MPKI:0.00
PC:37b12     Total:410      MisBP:0   MisRate:0.00%    MPKI:0.00
PC:75d62     Total:31      MisBP:0   MisRate:0.00%    MPKI:0.00
PC:4c388     Total:37      MisBP:0   MisRate:0.00%    MPKI:0.00
PC:194ee     Total:109      MisBP:0   MisRate:0.00%    MPKI:0.00
PC:3b212     Total:75      MisBP:0   MisRate:0.00%    MPKI:0.00
PC:3b21a     Total:75      MisBP:0   MisRate:0.00%    MPKI:0.00
PC:3bb08     Total:74      MisBP:0   MisRate:0.00%    MPKI:0.00
PC:3fcfc     Total:13      MisBP:0   MisRate:0.00%    MPKI:0.00
PC:38fc8     Total:3201      MisBP:0   MisRate:0.00%    MPKI:0.00
PC:38fcc     Total:3200      MisBP:0   MisRate:0.00%    MPKI:0.00
PC:38fd8     Total:3329      MisBP:0   MisRate:0.00%    MPKI:0.00
PC:38fe0     Total:1545      MisBP:0   MisRate:0.00%    MPKI:0.00
PC:38fe4     Total:1573      MisBP:0   MisRate:0.00%    MPKI:0.00
PC:92824     Total:3      MisBP:0   MisRate:0.00%    MPKI:0.00
PC:15a96     Total:50411      MisBP:0   MisRate:0.00%    MPKI:0.00
PC:3f470     Total:494415      MisBP:0   MisRate:0.00%    MPKI:0.00
PC:1631a     Total:23390      MisBP:0   MisRate:0.00%    MPKI:0.00
PC:3fcf4     Total:13      MisBP:0   MisRate:0.00%    MPKI:0.00
PC:16c10     Total:9400      MisBP:0   MisRate:0.00%    MPKI:0.00
PC:16322     Total:23332      MisBP:0   MisRate:0.00%    MPKI:0.00
PC:3a92c     Total:1969      MisBP:0   MisRate:0.00%    MPKI:0.00
PC:3fd00     Total:3      MisBP:0   MisRate:0.00%    MPKI:0.00
PC:16c24     Total:3240      MisBP:0   MisRate:0.00%    MPKI:0.00
PC:16336     Total:22621      MisBP:0   MisRate:0.00%    MPKI:0.00
PC:3fd10     Total:27      MisBP:0   MisRate:0.00%    MPKI:0.00
PC:92860     Total:3      MisBP:0   MisRate:0.00%    MPKI:0.00
PC:3f4ac     Total:30951      MisBP:0   MisRate:0.00%    MPKI:0.00
PC:16c28     Total:3240      MisBP:0   MisRate:0.00%    MPKI:0.00
PC:3fd14     Total:27      MisBP:0   MisRate:0.00%    MPKI:0.00
PC:15ad6     Total:36034      MisBP:0   MisRate:0.00%    MPKI:0.00
PC:3f4b0     Total:30918      MisBP:0   MisRate:0.00%    MPKI:0.00
PC:16c76     Total:1925      MisBP:0   MisRate:0.00%    MPKI:0.00
PC:38a5e     Total:1094      MisBP:0   MisRate:0.00%    MPKI:0.00
PC:39c34     Total:55      MisBP:0   MisRate:0.00%    MPKI:0.00
PC:4ed98     Total:128      MisBP:0   MisRate:0.00%    MPKI:0.00
PC:253be     Total:14      MisBP:0   MisRate:0.00%    MPKI:0.00
PC:8be0c     Total:3      MisBP:0   MisRate:0.00%    MPKI:0.00
PC:4e07c     Total:11      MisBP:0   MisRate:0.00%    MPKI:0.00
PC:24f90     Total:68089      MisBP:0   MisRate:0.00%    MPKI:0.00
PC:39c38     Total:55      MisBP:0   MisRate:0.00%    MPKI:0.00
PC:253c2     Total:14      MisBP:0   MisRate:0.00%    MPKI:0.00
PC:8be10     Total:3      MisBP:0   MisRate:0.00%    MPKI:0.00
PC:39c3a     Total:55      MisBP:0   MisRate:0.00%    MPKI:0.00
PC:4ed9e     Total:13      MisBP:0   MisRate:0.00%    MPKI:0.00
PC:253c4     Total:14      MisBP:0   MisRate:0.00%    MPKI:0.00
PC:38a56     Total:1120      MisBP:0   MisRate:0.00%    MPKI:0.00
PC:8be12     Total:2      MisBP:0   MisRate:0.00%    MPKI:0.00
PC:39c3c     Total:55      MisBP:0   MisRate:0.00%    MPKI:0.00
PC:253c6     Total:14      MisBP:0   MisRate:0.00%    MPKI:0.00
PC:38a62     Total:1094      MisBP:0   MisRate:0.00%    MPKI:0.00
PC:8be16     Total:2      MisBP:0   MisRate:0.00%    MPKI:0.00
PC:1b5ec     Total:409      MisBP:0   MisRate:0.00%    MPKI:0.00
PC:39c52     Total:2      MisBP:0   MisRate:0.00%    MPKI:0.00
PC:253dc     Total:25      MisBP:0   MisRate:0.00%    MPKI:0.00
PC:38a76     Total:3696      MisBP:0   MisRate:0.00%    MPKI:0.00
PC:8be2a     Total:2      MisBP:0   MisRate:0.00%    MPKI:0.00
PC:1b5fc     Total:406      MisBP:0   MisRate:0.00%    MPKI:0.00
PC:39c62     Total:16      MisBP:0   MisRate:0.00%    MPKI:0.00
PC:24f7c     Total:320172      MisBP:0   MisRate:0.00%    MPKI:0.00
PC:24f6c     Total:247816      MisBP:0   MisRate:0.00%    MPKI:0.00
PC:77a38     Total:2      MisBP:0   MisRate:0.00%    MPKI:0.00
PC:4e05e     Total:8      MisBP:0   MisRate:0.00%    MPKI:0.00
PC:39c1a     Total:55      MisBP:0   MisRate:0.00%    MPKI:0.00
PC:4ed7e     Total:3      MisBP:0   MisRate:0.00%    MPKI:0.00
PC:253a4     Total:4596      MisBP:0   MisRate:0.00%    MPKI:0.00
PC:77a3c     Total:2      MisBP:0   MisRate:0.00%    MPKI:0.00
PC:4e062     Total:8      MisBP:0   MisRate:0.00%    MPKI:0.00
PC:24f76     Total:320266      MisBP:0   MisRate:0.00%    MPKI:0.00
PC:4e064     Total:8      MisBP:0   MisRate:0.00%    MPKI:0.00
PC:24f78     Total:320209      MisBP:0   MisRate:0.00%    MPKI:0.00
PC:4e068     Total:8      MisBP:0   MisRate:0.00%    MPKI:0.00
PC:1b604     Total:351      MisBP:0   MisRate:0.00%    MPKI:0.00
PC:39c24     Total:55      MisBP:0   MisRate:0.00%    MPKI:0.00
PC:253ae     Total:4596      MisBP:0   MisRate:0.00%    MPKI:0.00
PC:4e06e     Total:8      MisBP:0   MisRate:0.00%    MPKI:0.00
PC:24f82     Total:70125      MisBP:0   MisRate:0.00%    MPKI:0.00
PC:39c2a     Total:55      MisBP:0   MisRate:0.00%    MPKI:0.00
PC:4e072     Total:9      MisBP:0   MisRate:0.00%    MPKI:0.00
PC:39c2e     Total:55      MisBP:0   MisRate:0.00%    MPKI:0.00
PC:4ed92     Total:135      MisBP:0   MisRate:0.00%    MPKI:0.00
PC:4e076     Total:12      MisBP:0   MisRate:0.00%    MPKI:0.00
PC:24f8a     Total:139867      MisBP:0   MisRate:0.00%    MPKI:0.00
PC:39c32     Total:55      MisBP:0   MisRate:0.00%    MPKI:0.00
PC:3a922     Total:442      MisBP:0   MisRate:0.00%    MPKI:0.00
PC:3a91c     Total:442      MisBP:0   MisRate:0.00%    MPKI:0.00
PC:39740     Total:59      MisBP:0   MisRate:0.00%    MPKI:0.00
PC:8caf4     Total:1      MisBP:0   MisRate:0.00%    MPKI:0.00
PC:1c2b8     Total:13077      MisBP:0   MisRate:0.00%    MPKI:0.00
PC:3a91e     Total:442      MisBP:0   MisRate:0.00%    MPKI:0.00
PC:260a8     Total:642      MisBP:0   MisRate:0.00%    MPKI:0.00
PC:39742     Total:59      MisBP:0   MisRate:0.00%    MPKI:0.00
PC:8caf6     Total:1      MisBP:0   MisRate:0.00%    MPKI:0.00
PC:99048     Total:3      MisBP:0   MisRate:0.00%    MPKI:0.00
PC:1c2ba     Total:13077      MisBP:0   MisRate:0.00%    MPKI:0.00
PC:3a920     Total:442      MisBP:0   MisRate:0.00%    MPKI:0.00
PC:8caf8     Total:1      MisBP:0   MisRate:0.00%    MPKI:0.00
PC:1c2b6     Total:13081      MisBP:0   MisRate:0.00%    MPKI:0.00
PC:260ac     Total:642      MisBP:0   MisRate:0.00%    MPKI:0.00
PC:3a926     Total:493      MisBP:0   MisRate:0.00%    MPKI:0.00
PC:260b0     Total:642      MisBP:0   MisRate:0.00%    MPKI:0.00
PC:3a928     Total:493      MisBP:0   MisRate:0.00%    MPKI:0.00
PC:4fa8c     Total:1212      MisBP:0   MisRate:0.00%    MPKI:0.00
PC:260b2     Total:642      MisBP:0   MisRate:0.00%    MPKI:0.00
PC:99052     Total:3      MisBP:0   MisRate:0.00%    MPKI:0.00
PC:1c2c4     Total:11475      MisBP:0   MisRate:0.00%    MPKI:0.00
PC:3a92a     Total:493      MisBP:0   MisRate:0.00%    MPKI:0.00
PC:99054     Total:3      MisBP:0   MisRate:0.00%    MPKI:0.00
PC:1c2c6     Total:11469      MisBP:0   MisRate:0.00%    MPKI:0.00
PC:4245e     Total:7      MisBP:0   MisRate:0.00%    MPKI:0.00
PC:379960     Total:1      MisBP:0   MisRate:0.00%    MPKI:0.00
PC:39c6a     Total:15      MisBP:0   MisRate:0.00%    MPKI:0.00
PC:150f0     Total:69      MisBP:0   MisRate:0.00%    MPKI:0.00
PC:3eaca     Total:6285      MisBP:0   MisRate:0.00%    MPKI:0.00
PC:410c8     Total:16163      MisBP:0   MisRate:0.00%    MPKI:0.00
PC:41308     Total:22664      MisBP:0   MisRate:0.00%    MPKI:0.00
PC:41bf6     Total:880      MisBP:0   MisRate:0.00%    MPKI:0.00
PC:1821c     Total:7      MisBP:0   MisRate:0.00%    MPKI:0.00
PC:41b6c     Total:22      MisBP:0   MisRate:0.00%    MPKI:0.00
PC:4130a     Total:22664      MisBP:0   MisRate:0.00%    MPKI:0.00
PC:4245c     Total:7      MisBP:0   MisRate:0.00%    MPKI:0.00
PC:18a82     Total:1390      MisBP:0   MisRate:0.00%    MPKI:0.00
PC:37baa     Total:425      MisBP:0   MisRate:0.00%    MPKI:0.00
PC:18a84     Total:1390      MisBP:0   MisRate:0.00%    MPKI:0.00
[...]
PC:28c88     Total:38225      MisBP:5936   MisRate:15.53%    MPKI:0.02
PC:3cd7e     Total:32179      MisBP:5955   MisRate:18.51%    MPKI:0.02
PC:3c878     Total:47047      MisBP:5956   MisRate:12.66%    MPKI:0.02
PC:17efc     Total:50350      MisBP:5960   MisRate:11.84%    MPKI:0.02
PC:410b4     Total:34254      MisBP:5975   MisRate:17.44%    MPKI:0.02
PC:3c74a     Total:72567      MisBP:5982   MisRate:8.24%    MPKI:0.02
PC:3f4d2     Total:27746      MisBP:6020   MisRate:21.70%    MPKI:0.02
PC:252cc     Total:33690      MisBP:6021   MisRate:17.87%    MPKI:0.02
PC:18b12     Total:45266      MisBP:6059   MisRate:13.39%    MPKI:0.02
PC:1afd6     Total:41250      MisBP:6071   MisRate:14.72%    MPKI:0.02
PC:15ca2     Total:39428      MisBP:6120   MisRate:15.52%    MPKI:0.02
PC:19358     Total:53169      MisBP:6123   MisRate:11.52%    MPKI:0.02
PC:84e7a     Total:47632      MisBP:6128   MisRate:12.87%    MPKI:0.02
PC:28b92     Total:47775      MisBP:6133   MisRate:12.84%    MPKI:0.02
PC:15bea     Total:42570      MisBP:6142   MisRate:14.43%    MPKI:0.02
PC:3c660     Total:35279      MisBP:6228   MisRate:17.65%    MPKI:0.02
PC:41212     Total:21513      MisBP:6229   MisRate:28.95%    MPKI:0.02
PC:40b66     Total:25456      MisBP:6257   MisRate:24.58%    MPKI:0.02
PC:15d22     Total:29829      MisBP:6280   MisRate:21.05%    MPKI:0.02
PC:164c6     Total:41507      MisBP:6296   MisRate:15.17%    MPKI:0.02
PC:1ae60     Total:32607      MisBP:6305   MisRate:19.34%    MPKI:0.02
PC:47890     Total:58498      MisBP:6346   MisRate:10.85%    MPKI:0.02
PC:15e66     Total:27802      MisBP:6376   MisRate:22.93%    MPKI:0.02
PC:47bcc     Total:27175      MisBP:6419   MisRate:23.62%    MPKI:0.02
PC:28c78     Total:52693      MisBP:6501   MisRate:12.34%    MPKI:0.02
PC:15bc0     Total:34454      MisBP:6559   MisRate:19.04%    MPKI:0.02
PC:252d0     Total:38810      MisBP:6573   MisRate:16.94%    MPKI:0.02
PC:28c70     Total:57806      MisBP:6603   MisRate:11.42%    MPKI:0.02
PC:3ec3c     Total:45780      MisBP:6661   MisRate:14.55%    MPKI:0.02
PC:3ec4e     Total:19085      MisBP:6679   MisRate:35.00%    MPKI:0.02
PC:18e38     Total:98331      MisBP:6683   MisRate:6.80%    MPKI:0.02
PC:28d48     Total:60749      MisBP:6697   MisRate:11.02%    MPKI:0.02
PC:3ce0a     Total:25473      MisBP:6797   MisRate:26.68%    MPKI:0.02
PC:4110c     Total:66074      MisBP:6886   MisRate:10.42%    MPKI:0.02
PC:3d36e     Total:63580      MisBP:7001   MisRate:11.01%    MPKI:0.02
PC:1afbc     Total:45327      MisBP:7008   MisRate:15.46%    MPKI:0.02
PC:162e0     Total:41898      MisBP:7038   MisRate:16.80%    MPKI:0.02
PC:19762     Total:52027      MisBP:7058   MisRate:13.57%    MPKI:0.02
PC:1afc4     Total:33345      MisBP:7091   MisRate:21.27%    MPKI:0.02
PC:19364     Total:44041      MisBP:7118   MisRate:16.16%    MPKI:0.02
PC:15e30     Total:28003      MisBP:7120   MisRate:25.43%    MPKI:0.02
PC:3cd96     Total:32161      MisBP:7121   MisRate:22.14%    MPKI:0.02
PC:51368     Total:293910      MisBP:7200   MisRate:2.45%    MPKI:0.02
PC:40b2c     Total:160578      MisBP:7209   MisRate:4.49%    MPKI:0.02
PC:3be8a     Total:71713      MisBP:7257   MisRate:10.12%    MPKI:0.02
PC:1978a     Total:39472      MisBP:7287   MisRate:18.46%    MPKI:0.02
PC:18bec     Total:627737      MisBP:7600   MisRate:1.21%    MPKI:0.02
PC:187b4     Total:371846      MisBP:7605   MisRate:2.05%    MPKI:0.02
PC:1af18     Total:59479      MisBP:7612   MisRate:12.80%    MPKI:0.02
PC:3e1aa     Total:26276      MisBP:7692   MisRate:29.27%    MPKI:0.02
PC:1a78a     Total:33295      MisBP:7770   MisRate:23.34%    MPKI:0.03
PC:3c64a     Total:45071      MisBP:7775   MisRate:17.25%    MPKI:0.03
PC:3c62a     Total:52325      MisBP:7776   MisRate:14.86%    MPKI:0.03
PC:19a5e     Total:51240      MisBP:7834   MisRate:15.29%    MPKI:0.03
PC:19646     Total:64857      MisBP:7899   MisRate:12.18%    MPKI:0.03
PC:1ae24     Total:70887      MisBP:7939   MisRate:11.20%    MPKI:0.03
PC:51a56     Total:120188      MisBP:8004   MisRate:6.66%    MPKI:0.03
PC:3e158     Total:19383      MisBP:8023   MisRate:41.39%    MPKI:0.03
PC:1add0     Total:83778      MisBP:8027   MisRate:9.58%    MPKI:0.03
PC:1c15c     Total:71732      MisBP:8055   MisRate:11.23%    MPKI:0.03
PC:1acf6     Total:49459      MisBP:8068   MisRate:16.31%    MPKI:0.03
PC:3c7bc     Total:66256      MisBP:8089   MisRate:12.21%    MPKI:0.03
PC:3e748     Total:34705      MisBP:8105   MisRate:23.35%    MPKI:0.03
PC:37de6     Total:50830      MisBP:8107   MisRate:15.95%    MPKI:0.03
PC:16198     Total:40558      MisBP:8128   MisRate:20.04%    MPKI:0.03
PC:1c04a     Total:97304      MisBP:8140   MisRate:8.37%    MPKI:0.03
PC:1c826     Total:115949      MisBP:8155   MisRate:7.03%    MPKI:0.03
PC:3e148     Total:44401      MisBP:8167   MisRate:18.39%    MPKI:0.03
PC:28b7a     Total:44272      MisBP:8224   MisRate:18.58%    MPKI:0.03
PC:1615e     Total:39285      MisBP:8232   MisRate:20.95%    MPKI:0.03
PC:16138     Total:41883      MisBP:8324   MisRate:19.87%    MPKI:0.03
PC:15b50     Total:51417      MisBP:8342   MisRate:16.22%    MPKI:0.03
PC:15e94     Total:28076      MisBP:8351   MisRate:29.74%    MPKI:0.03
PC:3cb10     Total:51783      MisBP:8360   MisRate:16.14%    MPKI:0.03
PC:18a14     Total:54907      MisBP:8399   MisRate:15.30%    MPKI:0.03
PC:18fce     Total:69891      MisBP:8414   MisRate:12.04%    MPKI:0.03
PC:2635e     Total:61712      MisBP:8421   MisRate:13.65%    MPKI:0.03
PC:18f84     Total:66616      MisBP:8425   MisRate:12.65%    MPKI:0.03
PC:40936     Total:25407      MisBP:8516   MisRate:33.52%    MPKI:0.03
PC:3c5cc     Total:53384      MisBP:8517   MisRate:15.95%    MPKI:0.03
PC:4eaf6     Total:40619      MisBP:8692   MisRate:21.40%    MPKI:0.03
PC:19018     Total:72032      MisBP:8749   MisRate:12.15%    MPKI:0.03
PC:158ca     Total:68647      MisBP:8813   MisRate:12.84%    MPKI:0.03
PC:1adcc     Total:93054      MisBP:8831   MisRate:9.49%    MPKI:0.03
PC:26024     Total:46298      MisBP:8965   MisRate:19.36%    MPKI:0.03
PC:51a92     Total:118729      MisBP:9140   MisRate:7.70%    MPKI:0.03
PC:3c634     Total:61128      MisBP:9141   MisRate:14.95%    MPKI:0.03
PC:410ee     Total:31416      MisBP:9144   MisRate:29.11%    MPKI:0.03
PC:156fa     Total:95904      MisBP:9265   MisRate:9.66%    MPKI:0.03
PC:15942     Total:80741      MisBP:9303   MisRate:11.52%    MPKI:0.03
PC:3c2d4     Total:99376      MisBP:9330   MisRate:9.39%    MPKI:0.03
PC:19a82     Total:385716      MisBP:9363   MisRate:2.43%    MPKI:0.03
PC:1c0b6     Total:60946      MisBP:9410   MisRate:15.44%    MPKI:0.03
PC:1ad0c     Total:88662      MisBP:9420   MisRate:10.62%    MPKI:0.03
PC:47b0c     Total:73539      MisBP:9440   MisRate:12.84%    MPKI:0.03
PC:3c804     Total:97191      MisBP:9519   MisRate:9.79%    MPKI:0.03
PC:24edc     Total:105524      MisBP:9611   MisRate:9.11%    MPKI:0.03
PC:1b862     Total:46372      MisBP:9614   MisRate:20.73%    MPKI:0.03
PC:3f4cc     Total:39973      MisBP:9649   MisRate:24.14%    MPKI:0.03
PC:159ce     Total:131459      MisBP:9715   MisRate:7.39%    MPKI:0.03
PC:3c7ee     Total:64753      MisBP:9719   MisRate:15.01%    MPKI:0.03
PC:17eae     Total:68180      MisBP:9758   MisRate:14.31%    MPKI:0.03
PC:199e8     Total:146900      MisBP:9763   MisRate:6.65%    MPKI:0.03
PC:196ea     Total:75641      MisBP:9784   MisRate:12.93%    MPKI:0.03
PC:24eec     Total:92254      MisBP:9787   MisRate:10.61%    MPKI:0.03
PC:17db0     Total:101196      MisBP:9810   MisRate:9.69%    MPKI:0.03
PC:164b4     Total:42430      MisBP:9936   MisRate:23.42%    MPKI:0.03
PC:1596a     Total:145302      MisBP:10054   MisRate:6.92%    MPKI:0.03
PC:197da     Total:99467      MisBP:10071   MisRate:10.12%    MPKI:0.03
PC:17eb8     Total:63517      MisBP:10079   MisRate:15.87%    MPKI:0.03
PC:1acc2     Total:88548      MisBP:10085   MisRate:11.39%    MPKI:0.03
PC:18f26     Total:81016      MisBP:10129   MisRate:12.50%    MPKI:0.03
PC:199de     Total:130300      MisBP:10189   MisRate:7.82%    MPKI:0.03
PC:37e7a     Total:189848      MisBP:10369   MisRate:5.46%    MPKI:0.03
PC:1b7f0     Total:84220      MisBP:10404   MisRate:12.35%    MPKI:0.03
PC:1bfa2     Total:219954      MisBP:10501   MisRate:4.77%    MPKI:0.03
PC:28cee     Total:76888      MisBP:10517   MisRate:13.68%    MPKI:0.03
PC:84e98     Total:44088      MisBP:10585   MisRate:24.01%    MPKI:0.03
PC:15c9c     Total:77351      MisBP:10633   MisRate:13.75%    MPKI:0.03
PC:3ce00     Total:47748      MisBP:10775   MisRate:22.57%    MPKI:0.03
PC:3ce46     Total:49800      MisBP:10790   MisRate:21.67%    MPKI:0.03
PC:1c200     Total:80166      MisBP:10847   MisRate:13.53%    MPKI:0.03
PC:478b8     Total:59295      MisBP:10849   MisRate:18.30%    MPKI:0.03
PC:40b32     Total:175017      MisBP:10909   MisRate:6.23%    MPKI:0.04
PC:51a86     Total:150309      MisBP:11062   MisRate:7.36%    MPKI:0.04
PC:47b58     Total:74595      MisBP:11070   MisRate:14.84%    MPKI:0.04
PC:1accc     Total:96532      MisBP:11356   MisRate:11.76%    MPKI:0.04
PC:18df0     Total:73450      MisBP:11377   MisRate:15.49%    MPKI:0.04
PC:25008     Total:76998      MisBP:11577   MisRate:15.04%    MPKI:0.04
PC:3be8e     Total:68105      MisBP:11656   MisRate:17.11%    MPKI:0.04
PC:3bfc4     Total:138717      MisBP:11656   MisRate:8.40%    MPKI:0.04
PC:159e8     Total:100956      MisBP:11661   MisRate:11.55%    MPKI:0.04
PC:159d4     Total:105742      MisBP:11664   MisRate:11.03%    MPKI:0.04
PC:190a6     Total:66335      MisBP:11674   MisRate:17.60%    MPKI:0.04
PC:3c298     Total:62507      MisBP:11847   MisRate:18.95%    MPKI:0.04
PC:1ad06     Total:99788      MisBP:11895   MisRate:11.92%    MPKI:0.04
PC:512ba     Total:111217      MisBP:11896   MisRate:10.70%    MPKI:0.04
PC:24ccc     Total:137210      MisBP:12351   MisRate:9.00%    MPKI:0.04
PC:519d0     Total:130658      MisBP:12386   MisRate:9.48%    MPKI:0.04
PC:154b2     Total:266693      MisBP:12411   MisRate:4.65%    MPKI:0.04
PC:1973e     Total:94447      MisBP:12531   MisRate:13.27%    MPKI:0.04
PC:15972     Total:135147      MisBP:12560   MisRate:9.29%    MPKI:0.04
PC:18eba     Total:87361      MisBP:12630   MisRate:14.46%    MPKI:0.04
PC:41130     Total:40108      MisBP:12663   MisRate:31.57%    MPKI:0.04
PC:3cff0     Total:44728      MisBP:12705   MisRate:28.41%    MPKI:0.04
PC:159f8     Total:92013      MisBP:12752   MisRate:13.86%    MPKI:0.04
PC:3cb1a     Total:62071      MisBP:12829   MisRate:20.67%    MPKI:0.04
PC:3e14e     Total:55945      MisBP:12963   MisRate:23.17%    MPKI:0.04
PC:1aca0     Total:130123      MisBP:13113   MisRate:10.08%    MPKI:0.04
PC:1c77e     Total:85129      MisBP:13286   MisRate:15.61%    MPKI:0.04
PC:3c7e0     Total:89863      MisBP:13325   MisRate:14.83%    MPKI:0.04
PC:47b94     Total:80874      MisBP:13387   MisRate:16.55%    MPKI:0.04
PC:1c82c     Total:154043      MisBP:13533   MisRate:8.79%    MPKI:0.04
PC:1acb8     Total:87672      MisBP:13892   MisRate:15.85%    MPKI:0.04
PC:3c7b2     Total:96982      MisBP:13949   MisRate:14.38%    MPKI:0.04
PC:3c692     Total:81621      MisBP:14018   MisRate:17.17%    MPKI:0.05
PC:1882e     Total:204897      MisBP:14022   MisRate:6.84%    MPKI:0.05
PC:19748     Total:96588      MisBP:14117   MisRate:14.62%    MPKI:0.05
PC:1acd6     Total:121837      MisBP:14476   MisRate:11.88%    MPKI:0.05
PC:51a64     Total:122169      MisBP:14827   MisRate:12.14%    MPKI:0.05
PC:18dfa     Total:107130      MisBP:15065   MisRate:14.06%    MPKI:0.05
PC:15c92     Total:100301      MisBP:15144   MisRate:15.10%    MPKI:0.05
PC:24e84     Total:333880      MisBP:15188   MisRate:4.55%    MPKI:0.05
PC:9e50c     Total:719398      MisBP:15229   MisRate:2.12%    MPKI:0.05
PC:51a2e     Total:157047      MisBP:15283   MisRate:9.73%    MPKI:0.05
PC:19a52     Total:98287      MisBP:15645   MisRate:15.92%    MPKI:0.05
PC:1bf82     Total:131494      MisBP:15668   MisRate:11.92%    MPKI:0.05
PC:15a08     Total:115174      MisBP:15891   MisRate:13.80%    MPKI:0.05
PC:159ee     Total:96485      MisBP:15953   MisRate:16.53%    MPKI:0.05
PC:3cfa6     Total:190949      MisBP:16015   MisRate:8.39%    MPKI:0.05
PC:3c220     Total:323979      MisBP:16235   MisRate:5.01%    MPKI:0.05
PC:156b6     Total:223642      MisBP:16308   MisRate:7.29%    MPKI:0.05
PC:17de6     Total:85201      MisBP:16400   MisRate:19.25%    MPKI:0.05
PC:51a70     Total:127075      MisBP:16420   MisRate:12.92%    MPKI:0.05
PC:159fe     Total:99994      MisBP:16574   MisRate:16.57%    MPKI:0.05
PC:18d56     Total:110681      MisBP:16673   MisRate:15.06%    MPKI:0.05
PC:15a0e     Total:124226      MisBP:16741   MisRate:13.48%    MPKI:0.05
PC:18e00     Total:241578      MisBP:17180   MisRate:7.11%    MPKI:0.06
PC:192ac     Total:150020      MisBP:17705   MisRate:11.80%    MPKI:0.06
PC:1576e     Total:97768      MisBP:17737   MisRate:18.14%    MPKI:0.06
PC:14e10     Total:72337      MisBP:17761   MisRate:24.55%    MPKI:0.06
PC:17e74     Total:81733      MisBP:17770   MisRate:21.74%    MPKI:0.06
PC:24f48     Total:288253      MisBP:17802   MisRate:6.18%    MPKI:0.06
PC:17fcc     Total:166586      MisBP:17859   MisRate:10.72%    MPKI:0.06
PC:47b60     Total:79024      MisBP:18533   MisRate:23.45%    MPKI:0.06
PC:1acaa     Total:95965      MisBP:18788   MisRate:19.58%    MPKI:0.06
PC:1925a     Total:140373      MisBP:19001   MisRate:13.54%    MPKI:0.06
PC:15950     Total:92799      MisBP:19071   MisRate:20.55%    MPKI:0.06
PC:1aca4     Total:117766      MisBP:19169   MisRate:16.28%    MPKI:0.06
PC:14e64     Total:143011      MisBP:19175   MisRate:13.41%    MPKI:0.06
PC:1ace0     Total:128811      MisBP:19331   MisRate:15.01%    MPKI:0.06
PC:1b830     Total:63010      MisBP:19524   MisRate:30.99%    MPKI:0.06
PC:19a6c     Total:102000      MisBP:19589   MisRate:19.20%    MPKI:0.06
PC:19614     Total:315399      MisBP:19731   MisRate:6.26%    MPKI:0.06
PC:18d6a     Total:84547      MisBP:19801   MisRate:23.42%    MPKI:0.06
PC:176c2     Total:129513      MisBP:20457   MisRate:15.80%    MPKI:0.07
PC:1c7d4     Total:71934      MisBP:20558   MisRate:28.58%    MPKI:0.07
PC:18d76     Total:108129      MisBP:20604   MisRate:19.06%    MPKI:0.07
PC:199dc     Total:183696      MisBP:20985   MisRate:11.42%    MPKI:0.07
PC:197f4     Total:98142      MisBP:21113   MisRate:21.51%    MPKI:0.07
PC:18d72     Total:96322      MisBP:21219   MisRate:22.03%    MPKI:0.07
PC:1b7f4     Total:75461      MisBP:21862   MisRate:28.97%    MPKI:0.07
PC:3bfda     Total:166593      MisBP:21987   MisRate:13.20%    MPKI:0.07
PC:1acbc     Total:118448      MisBP:22070   MisRate:18.63%    MPKI:0.07
PC:192e0     Total:148019      MisBP:22100   MisRate:14.93%    MPKI:0.07
PC:1bfc4     Total:271719      MisBP:22208   MisRate:8.17%    MPKI:0.07
PC:1c01e     Total:151251      MisBP:22410   MisRate:14.82%    MPKI:0.07
PC:51360     Total:378911      MisBP:22676   MisRate:5.98%    MPKI:0.07
PC:17dac     Total:114933      MisBP:23093   MisRate:20.09%    MPKI:0.07
PC:15964     Total:135970      MisBP:23112   MisRate:17.00%    MPKI:0.07
PC:14ea4     Total:153525      MisBP:23156   MisRate:15.08%    MPKI:0.07
PC:24f4e     Total:267947      MisBP:24072   MisRate:8.98%    MPKI:0.08
PC:14ee6     Total:157372      MisBP:24337   MisRate:15.46%    MPKI:0.08
PC:1c12c     Total:166423      MisBP:24609   MisRate:14.79%    MPKI:0.08
PC:18f6a     Total:206937      MisBP:24863   MisRate:12.01%    MPKI:0.08
PC:1595a     Total:114486      MisBP:25272   MisRate:22.07%    MPKI:0.08
PC:1c088     Total:87397      MisBP:25945   MisRate:29.69%    MPKI:0.08
PC:19754     Total:198720      MisBP:26026   MisRate:13.10%    MPKI:0.08
PC:3ca14     Total:235560      MisBP:27052   MisRate:11.48%    MPKI:0.09
PC:512b6     Total:264390      MisBP:27212   MisRate:10.29%    MPKI:0.09
PC:1973c     Total:187964      MisBP:27275   MisRate:14.51%    MPKI:0.09
PC:3cfac     Total:178375      MisBP:27311   MisRate:15.31%    MPKI:0.09
PC:18dde     Total:93001      MisBP:27521   MisRate:29.59%    MPKI:0.09
PC:1bfe2     Total:270681      MisBP:27539   MisRate:10.17%    MPKI:0.09
PC:18d4c     Total:130443      MisBP:27769   MisRate:21.29%    MPKI:0.09
PC:15b40     Total:120293      MisBP:28013   MisRate:23.29%    MPKI:0.09
PC:15a1e     Total:89117      MisBP:28040   MisRate:31.46%    MPKI:0.09
PC:14fb8     Total:591944      MisBP:28253   MisRate:4.77%    MPKI:0.09
PC:14f26     Total:161661      MisBP:28269   MisRate:17.49%    MPKI:0.09
PC:154ac     Total:255306      MisBP:28584   MisRate:11.20%    MPKI:0.09
PC:3bfc6     Total:141810      MisBP:28859   MisRate:20.35%    MPKI:0.09
PC:1c1d2     Total:139716      MisBP:29400   MisRate:21.04%    MPKI:0.09
PC:155e6     Total:147879      MisBP:29703   MisRate:20.09%    MPKI:0.10
PC:24f74     Total:247640      MisBP:30472   MisRate:12.30%    MPKI:0.10
PC:19314     Total:152770      MisBP:30722   MisRate:20.11%    MPKI:0.10
PC:14fa8     Total:130656      MisBP:30723   MisRate:23.51%    MPKI:0.10
PC:154a2     Total:161866      MisBP:31882   MisRate:19.70%    MPKI:0.10
PC:3c224     Total:336033      MisBP:31887   MisRate:9.49%    MPKI:0.10
PC:28bd0     Total:204151      MisBP:32083   MisRate:15.72%    MPKI:0.10
PC:24e8c     Total:328410      MisBP:32092   MisRate:9.77%    MPKI:0.10
PC:157ba     Total:99223      MisBP:32927   MisRate:33.18%    MPKI:0.11
PC:18cde     Total:232258      MisBP:34057   MisRate:14.66%    MPKI:0.11
PC:3ca34     Total:229209      MisBP:34261   MisRate:14.95%    MPKI:0.11
PC:14f62     Total:170179      MisBP:35612   MisRate:20.93%    MPKI:0.11
PC:15a16     Total:114526      MisBP:35818   MisRate:31.27%    MPKI:0.12
PC:3ca0a     Total:281964      MisBP:35945   MisRate:12.75%    MPKI:0.12
PC:24f80     Total:302015      MisBP:36003   MisRate:11.92%    MPKI:0.12
PC:24ea4     Total:306637      MisBP:36819   MisRate:12.01%    MPKI:0.12
PC:199f6     Total:237016      MisBP:37977   MisRate:16.02%    MPKI:0.12
PC:3bf76     Total:730695      MisBP:39334   MisRate:5.38%    MPKI:0.13
PC:3bf88     Total:114477      MisBP:39894   MisRate:34.85%    MPKI:0.13
PC:3c6e4     Total:172421      MisBP:40604   MisRate:23.55%    MPKI:0.13
PC:3c73a     Total:276294      MisBP:42957   MisRate:15.55%    MPKI:0.14
PC:24f18     Total:356215      MisBP:43189   MisRate:12.12%    MPKI:0.14
PC:1bf88     Total:118518      MisBP:43538   MisRate:36.74%    MPKI:0.14
PC:1bfe8     Total:230863      MisBP:43858   MisRate:19.00%    MPKI:0.14
PC:512ac     Total:496156      MisBP:44483   MisRate:8.97%    MPKI:0.14
PC:18d3e     Total:164121      MisBP:44669   MisRate:27.22%    MPKI:0.14
PC:14fb2     Total:546756      MisBP:44874   MisRate:8.21%    MPKI:0.14
PC:28c14     Total:836169      MisBP:45225   MisRate:5.41%    MPKI:0.15
PC:156e4     Total:315847      MisBP:47389   MisRate:15.00%    MPKI:0.15
PC:18bb2     Total:351045      MisBP:47399   MisRate:13.50%    MPKI:0.15
PC:18d34     Total:212003      MisBP:49255   MisRate:23.23%    MPKI:0.16
PC:24cc8     Total:171607      MisBP:51014   MisRate:29.73%    MPKI:0.16
PC:84c10     Total:121153      MisBP:52423   MisRate:43.27%    MPKI:0.17
PC:1bfca     Total:252250      MisBP:55043   MisRate:21.82%    MPKI:0.18
PC:156a4     Total:283923      MisBP:55213   MisRate:19.45%    MPKI:0.18
PC:3ca32     Total:395954      MisBP:57665   MisRate:14.56%    MPKI:0.19
PC:1bfa8     Total:213197      MisBP:58060   MisRate:27.23%    MPKI:0.19
PC:28c04     Total:781470      MisBP:67115   MisRate:8.59%    MPKI:0.22
PC:18bda     Total:570356      MisBP:68880   MisRate:12.08%    MPKI:0.22
PC:17694     Total:2031778      MisBP:83226   MisRate:4.10%    MPKI:0.27
PC:188ca     Total:383690      MisBP:85211   MisRate:22.21%    MPKI:0.27
PC:18bde     Total:630245      MisBP:98966   MisRate:15.70%    MPKI:0.32
PC:3bf7c     Total:702648      MisBP:101467   MisRate:14.44%    MPKI:0.33
PC:1a934     Total:754875      MisBP:190058   MisRate:25.18%    MPKI:0.61
Totfetch:645220182  TotInsts:310000000  TotMis : inf%   MPKI : 22.44
=============finish sim!!!!!!=============
Done running SimPoint!
