Global frequency set at 1000000000000 ticks per second
 Register [printBranch()] ExitCallback !!!!!!! 
gem5 Simulator System.  https://www.gem5.org
gem5 is copyrighted software; use the --copyright option for details.

gem5 version 22.0.0.2
gem5 compiled Sep  7 2022 00:42:18
gem5 started Sep  7 2022 03:45:10
gem5 executing on a100, pid 2768590
command line: /data/zxf/gem5/gem5-prof/build/ARM/gem5.fast --outdir=/data/zxf/checkpoint/spec2006/473.astar/prof/astar_ckp_5 /data/zxf/gem5/gem5-prof/configs/example/se.py --cpu-type O3CPU --cpu-clock 1GHz --num-cpu 1 --l1d-hwp-type=BOPPrefetcher --caches --l2cache --l1i_size 32kB --l1d_size 32kB --l2_size 1MB --l1i_assoc 8 --l1d_assoc 8 --l2_assoc 16 --cacheline_size 64 --mem-type DDR3_2133_8x8 --mem-size 16GB --restore-simpoint-checkpoint -r 5 --checkpoint-dir /data/zxf/checkpoint/spec2006/473.astar/ckpt -c astar_base.gcc41-64bit -o rivers.cfg

info: Standard input is not a terminal, disabling listeners.
Resuming from /data/zxf/checkpoint/spec2006/473.astar/ckpt/cpt.simpoint_04_inst_182990000000_weight_0.000389_interval_300000000_warmup_10000000
Resuming from SimPoint #4, start_inst:182990000000, weight:0.000389, interval:300000000, warmup:10000000
Switch at curTick count:10000
Switched CPUS @ tick 118749299578000
[(<m5.objects.ArmCPU.ArmAtomicSimpleCPU object at 0x7fcc23ce5bb0>, <m5.objects.ArmCPU.ArmO3CPU object at 0x7fcc23cfde20>)]
switching cpus



+++++++++++++++++++++++++zxf print simpoint+++++++++++++++++++++++++++
Warmed up! Dumping and resetting stats!


=============start sim!!!!!!=============
PC:2c340     Total:391      MisBP:0   MisRate:0.00%    MPKI:0.00
PC:2efaa     Total:917      MisBP:0   MisRate:0.00%    MPKI:0.00
PC:13a80     Total:2985      MisBP:0   MisRate:0.00%    MPKI:0.00
PC:2d6d4     Total:1      MisBP:0   MisRate:0.00%    MPKI:0.00
PC:32650     Total:1103      MisBP:0   MisRate:0.00%    MPKI:0.00
PC:10a7a     Total:1      MisBP:0   MisRate:0.00%    MPKI:0.00
PC:2c890     Total:22765      MisBP:0   MisRate:0.00%    MPKI:0.00
PC:27914     Total:5      MisBP:0   MisRate:0.00%    MPKI:0.00
PC:13b24     Total:11773      MisBP:0   MisRate:0.00%    MPKI:0.00
PC:3250c     Total:892      MisBP:0   MisRate:0.00%    MPKI:0.00
PC:2d5aa     Total:624      MisBP:0   MisRate:0.00%    MPKI:0.00
PC:1483e     Total:354      MisBP:0   MisRate:0.00%    MPKI:0.00
PC:10a78     Total:95      MisBP:0   MisRate:0.00%    MPKI:0.00
PC:2c88e     Total:22797      MisBP:0   MisRate:0.00%    MPKI:0.00
PC:27912     Total:5      MisBP:0   MisRate:0.00%    MPKI:0.00
PC:32524     Total:381      MisBP:0   MisRate:0.00%    MPKI:0.00
PC:2c33c     Total:399      MisBP:0   MisRate:0.00%    MPKI:0.00
PC:2efa4     Total:919      MisBP:0   MisRate:0.00%    MPKI:0.00
PC:3252c     Total:378      MisBP:0   MisRate:0.00%    MPKI:0.00
PC:2791e     Total:5      MisBP:0   MisRate:0.00%    MPKI:0.00
PC:13b2e     Total:11713      MisBP:0   MisRate:0.00%    MPKI:0.00
PC:2c34a     Total:239      MisBP:0   MisRate:0.00%    MPKI:0.00
PC:2d5b4     Total:624      MisBP:0   MisRate:0.00%    MPKI:0.00
PC:32530     Total:378      MisBP:0   MisRate:0.00%    MPKI:0.00
PC:2c346     Total:239      MisBP:0   MisRate:0.00%    MPKI:0.00
PC:2d5b0     Total:624      MisBP:0   MisRate:0.00%    MPKI:0.00
PC:14844     Total:354      MisBP:0   MisRate:0.00%    MPKI:0.00
PC:2d6ce     Total:2      MisBP:0   MisRate:0.00%    MPKI:0.00
PC:10a7e     Total:1      MisBP:0   MisRate:0.00%    MPKI:0.00
PC:2d9e6     Total:297      MisBP:0   MisRate:0.00%    MPKI:0.00
PC:2c342     Total:1964      MisBP:0   MisRate:0.00%    MPKI:0.00
PC:2d5ac     Total:624      MisBP:0   MisRate:0.00%    MPKI:0.00
PC:32528     Total:381      MisBP:0   MisRate:0.00%    MPKI:0.00
PC:14824     Total:359      MisBP:0   MisRate:0.00%    MPKI:0.00
PC:2d590     Total:937      MisBP:0   MisRate:0.00%    MPKI:0.00
PC:2ccf0     Total:3      MisBP:0   MisRate:0.00%    MPKI:0.00
PC:2c332     Total:461      MisBP:0   MisRate:0.00%    MPKI:0.00
PC:2d59c     Total:684      MisBP:0   MisRate:0.00%    MPKI:0.00
PC:32518     Total:393      MisBP:0   MisRate:0.00%    MPKI:0.00
PC:2ef9a     Total:921      MisBP:0   MisRate:0.00%    MPKI:0.00
PC:13a70     Total:3159      MisBP:0   MisRate:0.00%    MPKI:0.00
PC:2c330     Total:461      MisBP:0   MisRate:0.00%    MPKI:0.00
PC:2d59a     Total:684      MisBP:0   MisRate:0.00%    MPKI:0.00
PC:1482e     Total:358      MisBP:0   MisRate:0.00%    MPKI:0.00
PC:10a6c     Total:96      MisBP:0   MisRate:0.00%    MPKI:0.00
PC:2f4ae     Total:1      MisBP:0   MisRate:0.00%    MPKI:0.00
PC:4a9d8     Total:2      MisBP:0   MisRate:0.00%    MPKI:0.00
PC:2d6c2     Total:2      MisBP:0   MisRate:0.00%    MPKI:0.00
PC:10a68     Total:128      MisBP:0   MisRate:0.00%    MPKI:0.00
PC:2c87e     Total:321674      MisBP:0   MisRate:0.00%    MPKI:0.00
PC:27902     Total:5      MisBP:0   MisRate:0.00%    MPKI:0.00
PC:13b12     Total:9226      MisBP:0   MisRate:0.00%    MPKI:0.00
PC:2ccf6     Total:2      MisBP:0   MisRate:0.00%    MPKI:0.00
PC:10a74     Total:96      MisBP:0   MisRate:0.00%    MPKI:0.00
PC:2d5a4     Total:928      MisBP:0   MisRate:0.00%    MPKI:0.00
PC:32520     Total:393      MisBP:0   MisRate:0.00%    MPKI:0.00
PC:2c886     Total:22798      MisBP:0   MisRate:0.00%    MPKI:0.00
PC:2790a     Total:5      MisBP:0   MisRate:0.00%    MPKI:0.00
PC:2c336     Total:461      MisBP:0   MisRate:0.00%    MPKI:0.00
PC:2d5a0     Total:929      MisBP:0   MisRate:0.00%    MPKI:0.00
PC:3251c     Total:393      MisBP:0   MisRate:0.00%    MPKI:0.00
PC:2c89a     Total:22764      MisBP:0   MisRate:0.00%    MPKI:0.00
PC:4a9de     Total:2      MisBP:0   MisRate:0.00%    MPKI:0.00
PC:2c884     Total:22798      MisBP:0   MisRate:0.00%    MPKI:0.00
PC:13b18     Total:8812      MisBP:0   MisRate:0.00%    MPKI:0.00
PC:2c334     Total:461      MisBP:0   MisRate:0.00%    MPKI:0.00
PC:2d59e     Total:929      MisBP:0   MisRate:0.00%    MPKI:0.00
PC:14832     Total:358      MisBP:0   MisRate:0.00%    MPKI:0.00
PC:2ccf4     Total:3      MisBP:0   MisRate:0.00%    MPKI:0.00
PC:2c8b2     Total:22732      MisBP:0   MisRate:0.00%    MPKI:0.00
PC:2ef4a     Total:848      MisBP:0   MisRate:0.00%    MPKI:0.00
PC:13a20     Total:8      MisBP:0   MisRate:0.00%    MPKI:0.00
PC:10a08     Total:204      MisBP:0   MisRate:0.00%    MPKI:0.00
PC:35e2a     Total:10      MisBP:0   MisRate:0.00%    MPKI:0.00
PC:2c3f8     Total:30      MisBP:0   MisRate:0.00%    MPKI:0.00
PC:2cca2     Total:11      MisBP:0   MisRate:0.00%    MPKI:0.00
PC:2f460     Total:82      MisBP:0   MisRate:0.00%    MPKI:0.00
PC:27936     Total:4      MisBP:0   MisRate:0.00%    MPKI:0.00
PC:2dcd6     Total:173      MisBP:0   MisRate:0.00%    MPKI:0.00
PC:2d548     Total:1282      MisBP:0   MisRate:0.00%    MPKI:0.00
PC:147dc     Total:3009      MisBP:0   MisRate:0.00%    MPKI:0.00
PC:324c4     Total:1      MisBP:0   MisRate:0.00%    MPKI:0.00
PC:2d65e     Total:1      MisBP:0   MisRate:0.00%    MPKI:0.00
PC:10a04     Total:204      MisBP:0   MisRate:0.00%    MPKI:0.00
PC:35e26     Total:10      MisBP:0   MisRate:0.00%    MPKI:0.00
PC:2c3f4     Total:30      MisBP:0   MisRate:0.00%    MPKI:0.00
PC:10eca     Total:4      MisBP:0   MisRate:0.00%    MPKI:0.00
PC:2c3fc     Total:30      MisBP:0   MisRate:0.00%    MPKI:0.00
PC:2d552     Total:1279      MisBP:0   MisRate:0.00%    MPKI:0.00
PC:2793e     Total:4      MisBP:0   MisRate:0.00%    MPKI:0.00
PC:13b4e     Total:4208      MisBP:0   MisRate:0.00%    MPKI:0.00
PC:2d550     Total:1280      MisBP:0   MisRate:0.00%    MPKI:0.00
PC:147e4     Total:325      MisBP:0   MisRate:0.00%    MPKI:0.00
PC:324cc     Total:1      MisBP:0   MisRate:0.00%    MPKI:0.00
PC:10a0c     Total:126      MisBP:0   MisRate:0.00%    MPKI:0.00
PC:35e2e     Total:10      MisBP:0   MisRate:0.00%    MPKI:0.00
PC:2cc9e     Total:11      MisBP:0   MisRate:0.00%    MPKI:0.00
PC:10ed2     Total:4      MisBP:0   MisRate:0.00%    MPKI:0.00
PC:2cca6     Total:11      MisBP:0   MisRate:0.00%    MPKI:0.00
PC:2f464     Total:82      MisBP:0   MisRate:0.00%    MPKI:0.00
PC:2d54c     Total:1281      MisBP:0   MisRate:0.00%    MPKI:0.00
PC:147e0     Total:328      MisBP:0   MisRate:0.00%    MPKI:0.00
PC:324c8     Total:1      MisBP:0   MisRate:0.00%    MPKI:0.00
PC:14f6a     Total:210      MisBP:0   MisRate:0.00%    MPKI:0.00
PC:2c354     Total:239      MisBP:0   MisRate:0.00%    MPKI:0.00
PC:2ef3e     Total:878      MisBP:0   MisRate:0.00%    MPKI:0.00
PC:13a14     Total:8      MisBP:0   MisRate:0.00%    MPKI:0.00
PC:2d656     Total:1      MisBP:0   MisRate:0.00%    MPKI:0.00
PC:148ea     Total:23      MisBP:0   MisRate:0.00%    MPKI:0.00
PC:109fc     Total:264      MisBP:0   MisRate:0.00%    MPKI:0.00
PC:2c3ec     Total:68      MisBP:0   MisRate:0.00%    MPKI:0.00
PC:2cc96     Total:12      MisBP:0   MisRate:0.00%    MPKI:0.00
PC:2f454     Total:83      MisBP:0   MisRate:0.00%    MPKI:0.00
PC:26e58     Total:30      MisBP:0   MisRate:0.00%    MPKI:0.00
PC:2c8a2     Total:22754      MisBP:0   MisRate:0.00%    MPKI:0.00
PC:27926     Total:4      MisBP:0   MisRate:0.00%    MPKI:0.00
PC:13b36     Total:4416      MisBP:0   MisRate:0.00%    MPKI:0.00
PC:2d5bc     Total:624      MisBP:0   MisRate:0.00%    MPKI:0.00
PC:32538     Total:378      MisBP:0   MisRate:0.00%    MPKI:0.00
PC:2c34e     Total:239      MisBP:0   MisRate:0.00%    MPKI:0.00
PC:32534     Total:378      MisBP:0   MisRate:0.00%    MPKI:0.00
PC:30ea4     Total:22      MisBP:0   MisRate:0.00%    MPKI:0.00
PC:27934     Total:4      MisBP:0   MisRate:0.00%    MPKI:0.00
PC:2c8b0     Total:22732      MisBP:0   MisRate:0.00%    MPKI:0.00
PC:13b44     Total:4212      MisBP:0   MisRate:0.00%    MPKI:0.00
PC:2d546     Total:1285      MisBP:0   MisRate:0.00%    MPKI:0.00
PC:27930     Total:4      MisBP:0   MisRate:0.00%    MPKI:0.00
PC:2c8ac     Total:22733      MisBP:0   MisRate:0.00%    MPKI:0.00
PC:2d542     Total:1287      MisBP:0   MisRate:0.00%    MPKI:0.00
PC:35e20     Total:10      MisBP:0   MisRate:0.00%    MPKI:0.00
PC:2c32e     Total:509      MisBP:0   MisRate:0.00%    MPKI:0.00
PC:2c3ee     Total:30      MisBP:0   MisRate:0.00%    MPKI:0.00
PC:10ec4     Total:4      MisBP:0   MisRate:0.00%    MPKI:0.00
PC:2792e     Total:4      MisBP:0   MisRate:0.00%    MPKI:0.00
PC:2c8aa     Total:22733      MisBP:0   MisRate:0.00%    MPKI:0.00
PC:13b3e     Total:4408      MisBP:0   MisRate:0.00%    MPKI:0.00
PC:2d540     Total:1283      MisBP:0   MisRate:0.00%    MPKI:0.00
PC:324bc     Total:2      MisBP:0   MisRate:0.00%    MPKI:0.00
PC:1480e     Total:359      MisBP:0   MisRate:0.00%    MPKI:0.00
PC:33b64     Total:4      MisBP:0   MisRate:0.00%    MPKI:0.00
PC:136be     Total:2875167      MisBP:0   MisRate:0.00%    MPKI:0.00
PC:10f00     Total:2      MisBP:0   MisRate:0.00%    MPKI:0.00
PC:2ccd4     Total:10      MisBP:0   MisRate:0.00%    MPKI:0.00
PC:2f492     Total:41556      MisBP:0   MisRate:0.00%    MPKI:0.00
PC:4a9bc     Total:3      MisBP:0   MisRate:0.00%    MPKI:0.00
PC:2d6a6     Total:3      MisBP:0   MisRate:0.00%    MPKI:0.00
PC:2d57a     Total:1269      MisBP:0   MisRate:0.00%    MPKI:0.00
PC:2c42a     Total:19      MisBP:0   MisRate:0.00%    MPKI:0.00
PC:14f98     Total:13      MisBP:0   MisRate:0.00%    MPKI:0.00
PC:127da     Total:19      MisBP:0   MisRate:0.00%    MPKI:0.00
PC:147f2     Total:371      MisBP:0   MisRate:0.00%    MPKI:0.00
PC:2d55e     Total:2221      MisBP:0   MisRate:0.00%    MPKI:0.00
PC:2ef78     Total:980      MisBP:0   MisRate:0.00%    MPKI:0.00
PC:13a4e     Total:3436      MisBP:0   MisRate:0.00%    MPKI:0.00
PC:2ccd0     Total:10      MisBP:0   MisRate:0.00%    MPKI:0.00
PC:2f48e     Total:41556      MisBP:0   MisRate:0.00%    MPKI:0.00
PC:4a9be     Total:2      MisBP:0   MisRate:0.00%    MPKI:0.00
PC:2d580     Total:1205      MisBP:0   MisRate:0.00%    MPKI:0.00
PC:324fc     Total:2      MisBP:0   MisRate:0.00%    MPKI:0.00
PC:14f9e     Total:15      MisBP:0   MisRate:0.00%    MPKI:0.00
PC:2d696     Total:3      MisBP:0   MisRate:0.00%    MPKI:0.00
PC:2c42c     Total:17      MisBP:0   MisRate:0.00%    MPKI:0.00
PC:33b66     Total:1      MisBP:0   MisRate:0.00%    MPKI:0.00
PC:10f02     Total:2      MisBP:0   MisRate:0.00%    MPKI:0.00
PC:2ccd6     Total:10      MisBP:0   MisRate:0.00%    MPKI:0.00
PC:4a9b8     Total:3      MisBP:0   MisRate:0.00%    MPKI:0.00
PC:2d6a8     Total:3      MisBP:0   MisRate:0.00%    MPKI:0.00
PC:32624     Total:1130      MisBP:0   MisRate:0.00%    MPKI:0.00
PC:10a4e     Total:2233      MisBP:0   MisRate:0.00%    MPKI:0.00
PC:14812     Total:359      MisBP:0   MisRate:0.00%    MPKI:0.00
PC:2d694     Total:3      MisBP:0   MisRate:0.00%    MPKI:0.00
PC:32610     Total:1138      MisBP:0   MisRate:0.00%    MPKI:0.00
PC:10a3a     Total:166      MisBP:0   MisRate:0.00%    MPKI:0.00
PC:33b5c     Total:2      MisBP:0   MisRate:0.00%    MPKI:0.00
PC:14f94     Total:13      MisBP:0   MisRate:0.00%    MPKI:0.00
PC:127d6     Total:11      MisBP:0   MisRate:0.00%    MPKI:0.00
PC:147ee     Total:318      MisBP:0   MisRate:0.00%    MPKI:0.00
PC:2ef74     Total:980      MisBP:0   MisRate:0.00%    MPKI:0.00
PC:13a4a     Total:3436      MisBP:0   MisRate:0.00%    MPKI:0.00
PC:2d68c     Total:3      MisBP:0   MisRate:0.00%    MPKI:0.00
PC:32608     Total:1139      MisBP:0   MisRate:0.00%    MPKI:0.00
PC:2c422     Total:19      MisBP:0   MisRate:0.00%    MPKI:0.00
PC:1480a     Total:359      MisBP:0   MisRate:0.00%    MPKI:0.00
PC:10ef8     Total:6      MisBP:0   MisRate:0.00%    MPKI:0.00
PC:2cccc     Total:10      MisBP:0   MisRate:0.00%    MPKI:0.00
PC:2f48a     Total:41557      MisBP:0   MisRate:0.00%    MPKI:0.00
PC:4a9b4     Total:3      MisBP:0   MisRate:0.00%    MPKI:0.00
PC:2d9ae     Total:183      MisBP:0   MisRate:0.00%    MPKI:0.00
PC:2d574     Total:1274      MisBP:0   MisRate:0.00%    MPKI:0.00
PC:324f0     Total:2      MisBP:0   MisRate:0.00%    MPKI:0.00
PC:10efa     Total:6      MisBP:0   MisRate:0.00%    MPKI:0.00
PC:10a48     Total:2425      MisBP:0   MisRate:0.00%    MPKI:0.00
PC:2d9b2     Total:253      MisBP:0   MisRate:0.00%    MPKI:0.00
PC:2d578     Total:1272      MisBP:0   MisRate:0.00%    MPKI:0.00
PC:324f4     Total:2      MisBP:0   MisRate:0.00%    MPKI:0.00
PC:14f96     Total:13      MisBP:0   MisRate:0.00%    MPKI:0.00
PC:2d68e     Total:3      MisBP:0   MisRate:0.00%    MPKI:0.00
PC:10a34     Total:167      MisBP:0   MisRate:0.00%    MPKI:0.00
PC:2c424     Total:19      MisBP:0   MisRate:0.00%    MPKI:0.00
PC:127e2     Total:28      MisBP:0   MisRate:0.00%    MPKI:0.00
PC:136b8     Total:3042261      MisBP:0   MisRate:0.00%    MPKI:0.00
PC:2ccce     Total:10      MisBP:0   MisRate:0.00%    MPKI:0.00
PC:2d6a0     Total:3      MisBP:0   MisRate:0.00%    MPKI:0.00
PC:3261c     Total:1137      MisBP:0   MisRate:0.00%    MPKI:0.00
PC:10a46     Total:2425      MisBP:0   MisRate:0.00%    MPKI:0.00
PC:2d9b0     Total:253      MisBP:0   MisRate:0.00%    MPKI:0.00
PC:2d576     Total:1274      MisBP:0   MisRate:0.00%    MPKI:0.00
PC:2ef88     Total:958      MisBP:0   MisRate:0.00%    MPKI:0.00
PC:32634     Total:1125      MisBP:0   MisRate:0.00%    MPKI:0.00
PC:10a5e     Total:128      MisBP:0   MisRate:0.00%    MPKI:0.00
PC:2cce4     Total:3      MisBP:0   MisRate:0.00%    MPKI:0.00
PC:2f4a2     Total:41465      MisBP:0   MisRate:0.00%    MPKI:0.00
PC:4a9cc     Total:2      MisBP:0   MisRate:0.00%    MPKI:0.00
PC:10a5c     Total:128      MisBP:0   MisRate:0.00%    MPKI:0.00
PC:2d58a     Total:1195      MisBP:0   MisRate:0.00%    MPKI:0.00
PC:14802     Total:359      MisBP:0   MisRate:0.00%    MPKI:0.00
PC:2d6b8     Total:3      MisBP:0   MisRate:0.00%    MPKI:0.00
PC:13a5e     Total:3291      MisBP:0   MisRate:0.00%    MPKI:0.00
PC:14fa8     Total:7      MisBP:0   MisRate:0.00%    MPKI:0.00
PC:127ea     Total:52      MisBP:0   MisRate:0.00%    MPKI:0.00
PC:2cce0     Total:3      MisBP:0   MisRate:0.00%    MPKI:0.00
PC:2f49e     Total:41465      MisBP:0   MisRate:0.00%    MPKI:0.00
PC:4a9c8     Total:2      MisBP:0   MisRate:0.00%    MPKI:0.00
PC:10a58     Total:128      MisBP:0   MisRate:0.00%    MPKI:0.00
PC:2d6be     Total:3      MisBP:0   MisRate:0.00%    MPKI:0.00
PC:2d598     Total:684      MisBP:0   MisRate:0.00%    MPKI:0.00
PC:32514     Total:393      MisBP:0   MisRate:0.00%    MPKI:0.00
PC:2c87c     Total:41430      MisBP:0   MisRate:0.00%    MPKI:0.00
PC:2c32c     Total:3054      MisBP:0   MisRate:0.00%    MPKI:0.00
PC:1482a     Total:358      MisBP:0   MisRate:0.00%    MPKI:0.00
PC:2ccec     Total:3      MisBP:0   MisRate:0.00%    MPKI:0.00
PC:2f4aa     Total:4      MisBP:0   MisRate:0.00%    MPKI:0.00
PC:4a9d4     Total:2      MisBP:0   MisRate:0.00%    MPKI:0.00
PC:1481a     Total:359      MisBP:0   MisRate:0.00%    MPKI:0.00
PC:10a64     Total:128      MisBP:0   MisRate:0.00%    MPKI:0.00
PC:2d594     Total:937      MisBP:0   MisRate:0.00%    MPKI:0.00
PC:32510     Total:446      MisBP:0   MisRate:0.00%    MPKI:0.00
PC:2ccea     Total:3      MisBP:0   MisRate:0.00%    MPKI:0.00
PC:2f4a8     Total:4      MisBP:0   MisRate:0.00%    MPKI:0.00
PC:10a62     Total:128      MisBP:0   MisRate:0.00%    MPKI:0.00
PC:2d9ca     Total:237      MisBP:0   MisRate:0.00%    MPKI:0.00
PC:32628     Total:1128      MisBP:0   MisRate:0.00%    MPKI:0.00
PC:14fa2     Total:13      MisBP:0   MisRate:0.00%    MPKI:0.00
PC:127e4     Total:28      MisBP:0   MisRate:0.00%    MPKI:0.00
PC:2c430     Total:31      MisBP:0   MisRate:0.00%    MPKI:0.00
PC:33b6a     Total:1      MisBP:0   MisRate:0.00%    MPKI:0.00
PC:10f06     Total:3      MisBP:0   MisRate:0.00%    MPKI:0.00
PC:2ccda     Total:10      MisBP:0   MisRate:0.00%    MPKI:0.00
PC:4a9c2     Total:2      MisBP:0   MisRate:0.00%    MPKI:0.00
PC:2d6ac     Total:3      MisBP:0   MisRate:0.00%    MPKI:0.00
PC:32500     Total:1      MisBP:0   MisRate:0.00%    MPKI:0.00
PC:10a52     Total:345      MisBP:0   MisRate:0.00%    MPKI:0.00
PC:2d9bc     Total:251      MisBP:0   MisRate:0.00%    MPKI:0.00
PC:2d582     Total:1205      MisBP:0   MisRate:0.00%    MPKI:0.00
PC:14816     Total:359      MisBP:0   MisRate:0.00%    MPKI:0.00
PC:2ef80     Total:960      MisBP:0   MisRate:0.00%    MPKI:0.00
PC:13a56     Total:3293      MisBP:0   MisRate:0.00%    MPKI:0.00
PC:14fa0     Total:13      MisBP:0   MisRate:0.00%    MPKI:0.00
PC:2c432     Total:124      MisBP:0   MisRate:0.00%    MPKI:0.00
PC:147fe     Total:360      MisBP:0   MisRate:0.00%    MPKI:0.00
PC:2d56a     Total:1299      MisBP:0   MisRate:0.00%    MPKI:0.00
PC:2ef84     Total:959      MisBP:0   MisRate:0.00%    MPKI:0.00
PC:14fa4     Total:12      MisBP:0   MisRate:0.00%    MPKI:0.00
PC:127e6     Total:28      MisBP:0   MisRate:0.00%    MPKI:0.00
PC:2d69c     Total:3      MisBP:0   MisRate:0.00%    MPKI:0.00
PC:32618     Total:1137      MisBP:0   MisRate:0.00%    MPKI:0.00
PC:10a42     Total:156      MisBP:0   MisRate:0.00%    MPKI:0.00
PC:13b50     Total:4202      MisBP:0   MisRate:0.00%    MPKI:0.00
PC:33b6c     Total:2      MisBP:0   MisRate:0.00%    MPKI:0.00
PC:136c6     Total:2871712      MisBP:0   MisRate:0.00%    MPKI:0.00
PC:10f08     Total:3      MisBP:0   MisRate:0.00%    MPKI:0.00
PC:2ccdc     Total:10      MisBP:0   MisRate:0.00%    MPKI:0.00
PC:2f49a     Total:83112      MisBP:0   MisRate:0.00%    MPKI:0.00
PC:4a9c4     Total:2      MisBP:0   MisRate:0.00%    MPKI:0.00
PC:2d584     Total:1204      MisBP:0   MisRate:0.00%    MPKI:0.00
PC:14e10     Total:9319      MisBP:0   MisRate:0.00%    MPKI:0.00
PC:3f1b2     Total:2      MisBP:0   MisRate:0.00%    MPKI:0.00
PC:14e14     Total:130      MisBP:0   MisRate:0.00%    MPKI:0.00
PC:2cb12     Total:5      MisBP:0   MisRate:0.00%    MPKI:0.00
PC:14860     Total:353      MisBP:0   MisRate:0.00%    MPKI:0.00
PC:32548     Total:1148      MisBP:0   MisRate:0.00%    MPKI:0.00
PC:65158     Total:6      MisBP:0   MisRate:0.00%    MPKI:0.00
PC:10a1c     Total:179      MisBP:0   MisRate:0.00%    MPKI:0.00
PC:3f1ae     Total:205      MisBP:0   MisRate:0.00%    MPKI:0.00
PC:10a20     Total:179      MisBP:0   MisRate:0.00%    MPKI:0.00
PC:2db7c     Total:6      MisBP:0   MisRate:0.00%    MPKI:0.00
PC:2cb0e     Total:5      MisBP:0   MisRate:0.00%    MPKI:0.00
PC:1485c     Total:353      MisBP:0   MisRate:0.00%    MPKI:0.00
PC:32544     Total:1148      MisBP:0   MisRate:0.00%    MPKI:0.00
PC:65154     Total:203      MisBP:0   MisRate:0.00%    MPKI:0.00
PC:10a18     Total:179      MisBP:0   MisRate:0.00%    MPKI:0.00
PC:3f1aa     Total:232      MisBP:0   MisRate:0.00%    MPKI:0.00
PC:14e0c     Total:9319      MisBP:0   MisRate:0.00%    MPKI:0.00
PC:3f1b6     Total:2      MisBP:0   MisRate:0.00%    MPKI:0.00
PC:1486c     Total:351      MisBP:0   MisRate:0.00%    MPKI:0.00
PC:2d5d8     Total:1      MisBP:0   MisRate:0.00%    MPKI:0.00
PC:32554     Total:1148      MisBP:0   MisRate:0.00%    MPKI:0.00
PC:65164     Total:2      MisBP:0   MisRate:0.00%    MPKI:0.00
PC:14868     Total:351      MisBP:0   MisRate:0.00%    MPKI:0.00
PC:2d5d4     Total:1      MisBP:0   MisRate:0.00%    MPKI:0.00
PC:32550     Total:1148      MisBP:0   MisRate:0.00%    MPKI:0.00
PC:65160     Total:2      MisBP:0   MisRate:0.00%    MPKI:0.00
PC:2db78     Total:6      MisBP:0   MisRate:0.00%    MPKI:0.00
PC:14e18     Total:216      MisBP:0   MisRate:0.00%    MPKI:0.00
PC:2db84     Total:5      MisBP:0   MisRate:0.00%    MPKI:0.00
PC:2cb16     Total:5      MisBP:0   MisRate:0.00%    MPKI:0.00
PC:14864     Total:353      MisBP:0   MisRate:0.00%    MPKI:0.00
PC:2d5d0     Total:63      MisBP:0   MisRate:0.00%    MPKI:0.00
PC:3254c     Total:1148      MisBP:0   MisRate:0.00%    MPKI:0.00
PC:6515c     Total:2      MisBP:0   MisRate:0.00%    MPKI:0.00
PC:1484a     Total:353      MisBP:0   MisRate:0.00%    MPKI:0.00
PC:2cb04     Total:5      MisBP:0   MisRate:0.00%    MPKI:0.00
PC:14852     Total:353      MisBP:0   MisRate:0.00%    MPKI:0.00
PC:3f1a0     Total:232      MisBP:0   MisRate:0.00%    MPKI:0.00
PC:14e02     Total:12390      MisBP:0   MisRate:0.00%    MPKI:0.00
PC:2db6e     Total:6      MisBP:0   MisRate:0.00%    MPKI:0.00
PC:1484e     Total:353      MisBP:0   MisRate:0.00%    MPKI:0.00
PC:3f19c     Total:232      MisBP:0   MisRate:0.00%    MPKI:0.00
PC:14dfe     Total:18589      MisBP:0   MisRate:0.00%    MPKI:0.00
PC:2db72     Total:6      MisBP:0   MisRate:0.00%    MPKI:0.00
PC:3f198     Total:232      MisBP:0   MisRate:0.00%    MPKI:0.00
PC:14dfa     Total:18593      MisBP:0   MisRate:0.00%    MPKI:0.00
PC:14846     Total:354      MisBP:0   MisRate:0.00%    MPKI:0.00
PC:3f194     Total:232      MisBP:0   MisRate:0.00%    MPKI:0.00
PC:14df6     Total:18628      MisBP:0   MisRate:0.00%    MPKI:0.00
PC:14842     Total:354      MisBP:0   MisRate:0.00%    MPKI:0.00
PC:1483a     Total:356      MisBP:0   MisRate:0.00%    MPKI:0.00
PC:14e08     Total:9310      MisBP:0   MisRate:0.00%    MPKI:0.00
PC:2cb0a     Total:5      MisBP:0   MisRate:0.00%    MPKI:0.00
PC:14858     Total:353      MisBP:0   MisRate:0.00%    MPKI:0.00
PC:2d5c4     Total:63      MisBP:0   MisRate:0.00%    MPKI:0.00
PC:32540     Total:1150      MisBP:0   MisRate:0.00%    MPKI:0.00
PC:65150     Total:812      MisBP:0   MisRate:0.00%    MPKI:0.00
PC:10a14     Total:126      MisBP:0   MisRate:0.00%    MPKI:0.00
PC:35e36     Total:10      MisBP:0   MisRate:0.00%    MPKI:0.00
PC:3f1a6     Total:232      MisBP:0   MisRate:0.00%    MPKI:0.00
PC:2cb1e     Total:5      MisBP:0   MisRate:0.00%    MPKI:0.00
PC:2db74     Total:6      MisBP:0   MisRate:0.00%    MPKI:0.00
PC:14854     Total:353      MisBP:0   MisRate:0.00%    MPKI:0.00
PC:2d5c0     Total:63      MisBP:0   MisRate:0.00%    MPKI:0.00
PC:3253c     Total:378      MisBP:0   MisRate:0.00%    MPKI:0.00
PC:6514e     Total:203      MisBP:0   MisRate:0.00%    MPKI:0.00
PC:10a12     Total:126      MisBP:0   MisRate:0.00%    MPKI:0.00
PC:14e06     Total:9310      MisBP:0   MisRate:0.00%    MPKI:0.00
PC:32578     Total:1148      MisBP:0   MisRate:0.00%    MPKI:0.00
PC:14e48     Total:113      MisBP:0   MisRate:0.00%    MPKI:0.00
PC:14894     Total:342      MisBP:0   MisRate:0.00%    MPKI:0.00
PC:2d600     Total:177      MisBP:0   MisRate:0.00%    MPKI:0.00
PC:3257c     Total:1148      MisBP:0   MisRate:0.00%    MPKI:0.00
PC:3f1e2     Total:2      MisBP:0   MisRate:0.00%    MPKI:0.00
PC:14e44     Total:113      MisBP:0   MisRate:0.00%    MPKI:0.00
PC:14890     Total:342      MisBP:0   MisRate:0.00%    MPKI:0.00
PC:2d5fc     Total:180      MisBP:0   MisRate:0.00%    MPKI:0.00
PC:3f1e6     Total:1      MisBP:0   MisRate:0.00%    MPKI:0.00
PC:3f1de     Total:1      MisBP:0   MisRate:0.00%    MPKI:0.00
PC:14e40     Total:113      MisBP:0   MisRate:0.00%    MPKI:0.00
PC:2dbac     Total:6      MisBP:0   MisRate:0.00%    MPKI:0.00
PC:1488c     Total:342      MisBP:0   MisRate:0.00%    MPKI:0.00
PC:32574     Total:1148      MisBP:0   MisRate:0.00%    MPKI:0.00
PC:3f1da     Total:1      MisBP:0   MisRate:0.00%    MPKI:0.00
PC:14e3c     Total:1483      MisBP:0   MisRate:0.00%    MPKI:0.00
PC:2dbbc     Total:5      MisBP:0   MisRate:0.00%    MPKI:0.00
PC:2d698     Total:3      MisBP:0   MisRate:0.00%    MPKI:0.00
PC:32614     Total:1138      MisBP:0   MisRate:0.00%    MPKI:0.00
PC:10a3e     Total:156      MisBP:0   MisRate:0.00%    MPKI:0.00
PC:10a36     Total:167      MisBP:0   MisRate:0.00%    MPKI:0.00
PC:2d68a     Total:3      MisBP:0   MisRate:0.00%    MPKI:0.00
PC:10a30     Total:167      MisBP:0   MisRate:0.00%    MPKI:0.00
PC:3f1ee     Total:1      MisBP:0   MisRate:0.00%    MPKI:0.00
PC:14e50     Total:84      MisBP:0   MisRate:0.00%    MPKI:0.00
PC:2dba8     Total:4      MisBP:0   MisRate:0.00%    MPKI:0.00
PC:1489c     Total:342      MisBP:0   MisRate:0.00%    MPKI:0.00
PC:2d608     Total:177      MisBP:0   MisRate:0.00%    MPKI:0.00
PC:32584     Total:1148      MisBP:0   MisRate:0.00%    MPKI:0.00
PC:3f1ea     Total:1      MisBP:0   MisRate:0.00%    MPKI:0.00
PC:14e4c     Total:113      MisBP:0   MisRate:0.00%    MPKI:0.00
PC:14898     Total:342      MisBP:0   MisRate:0.00%    MPKI:0.00
PC:32580     Total:1148      MisBP:0   MisRate:0.00%    MPKI:0.00
PC:14874     Total:351      MisBP:0   MisRate:0.00%    MPKI:0.00
PC:2db98     Total:4      MisBP:0   MisRate:0.00%    MPKI:0.00
PC:2cb2a     Total:5      MisBP:0   MisRate:0.00%    MPKI:0.00
PC:14878     Total:351      MisBP:0   MisRate:0.00%    MPKI:0.00
PC:2d5e4     Total:1      MisBP:0   MisRate:0.00%    MPKI:0.00
PC:32560     Total:1148      MisBP:0   MisRate:0.00%    MPKI:0.00
PC:3f1c6     Total:77      MisBP:0   MisRate:0.00%    MPKI:0.00
PC:2db94     Total:4      MisBP:0   MisRate:0.00%    MPKI:0.00
PC:2cb26     Total:5      MisBP:0   MisRate:0.00%    MPKI:0.00
PC:3f1ca     Total:975      MisBP:0   MisRate:0.00%    MPKI:0.00
PC:3255c     Total:1148      MisBP:0   MisRate:0.00%    MPKI:0.00
PC:3f1c2     Total:1      MisBP:0   MisRate:0.00%    MPKI:0.00
PC:2db90     Total:5      MisBP:0   MisRate:0.00%    MPKI:0.00
PC:2cb22     Total:5      MisBP:0   MisRate:0.00%    MPKI:0.00
PC:14870     Total:351      MisBP:0   MisRate:0.00%    MPKI:0.00
PC:2d5dc     Total:1      MisBP:0   MisRate:0.00%    MPKI:0.00
PC:32558     Total:1148      MisBP:0   MisRate:0.00%    MPKI:0.00
PC:2d5ee     Total:588      MisBP:0   MisRate:0.00%    MPKI:0.00
PC:2cb3a     Total:3      MisBP:0   MisRate:0.00%    MPKI:0.00
PC:14888     Total:1722      MisBP:0   MisRate:0.00%    MPKI:0.00
PC:32570     Total:1148      MisBP:0   MisRate:0.00%    MPKI:0.00
PC:3f1d8     Total:77      MisBP:0   MisRate:0.00%    MPKI:0.00
PC:2dba6     Total:4      MisBP:0   MisRate:0.00%    MPKI:0.00
PC:14886     Total:339      MisBP:0   MisRate:0.00%    MPKI:0.00
PC:2d5f2     Total:415      MisBP:0   MisRate:0.00%    MPKI:0.00
PC:14882     Total:342      MisBP:0   MisRate:0.00%    MPKI:0.00
PC:2d5a6     Total:927      MisBP:0   MisRate:0.00%    MPKI:0.00
PC:3f1d0     Total:927      MisBP:0   MisRate:0.00%    MPKI:0.00
PC:2cb30     Total:5      MisBP:0   MisRate:0.00%    MPKI:0.00
PC:1487e     Total:342      MisBP:0   MisRate:0.00%    MPKI:0.00
PC:2d5ea     Total:589      MisBP:0   MisRate:0.00%    MPKI:0.00
PC:2cb2c     Total:5      MisBP:0   MisRate:0.00%    MPKI:0.00
PC:1487a     Total:351      MisBP:0   MisRate:0.00%    MPKI:0.00
PC:2d5e6     Total:589      MisBP:0   MisRate:0.00%    MPKI:0.00
PC:326b4     Total:425      MisBP:0   MisRate:0.00%    MPKI:0.00
PC:326bc     Total:425      MisBP:0   MisRate:0.00%    MPKI:0.00
PC:2d73e     Total:1004      MisBP:0   MisRate:0.00%    MPKI:0.00
PC:2c4d0     Total:131      MisBP:0   MisRate:0.00%    MPKI:0.00
PC:2d73a     Total:1013      MisBP:0   MisRate:0.00%    MPKI:0.00
PC:10ade     Total:1134      MisBP:0   MisRate:0.00%    MPKI:0.00
PC:2c4ce     Total:22      MisBP:0   MisRate:0.00%    MPKI:0.00
PC:13762     Total:2484639      MisBP:0   MisRate:0.00%    MPKI:0.00
PC:2d738     Total:1028      MisBP:0   MisRate:0.00%    MPKI:0.00
PC:2d740     Total:1008      MisBP:0   MisRate:0.00%    MPKI:0.00
PC:10ada     Total:2272      MisBP:0   MisRate:0.00%    MPKI:0.00
PC:2c4ca     Total:22      MisBP:0   MisRate:0.00%    MPKI:0.00
PC:1375e     Total:2491231      MisBP:0   MisRate:0.00%    MPKI:0.00
PC:2d734     Total:1028      MisBP:0   MisRate:0.00%    MPKI:0.00
PC:326b0     Total:425      MisBP:0   MisRate:0.00%    MPKI:0.00
PC:10ad8     Total:1137      MisBP:0   MisRate:0.00%    MPKI:0.00
PC:2c4c8     Total:22      MisBP:0   MisRate:0.00%    MPKI:0.00
PC:1375c     Total:2498044      MisBP:0   MisRate:0.00%    MPKI:0.00
PC:10aea     Total:26      MisBP:0   MisRate:0.00%    MPKI:0.00
PC:2d74a     Total:1275      MisBP:0   MisRate:0.00%    MPKI:0.00
PC:10aee     Total:26      MisBP:0   MisRate:0.00%    MPKI:0.00
PC:2c4de     Total:128      MisBP:0   MisRate:0.00%    MPKI:0.00
PC:13772     Total:724714      MisBP:0   MisRate:0.00%    MPKI:0.00
PC:2d748     Total:1275      MisBP:0   MisRate:0.00%    MPKI:0.00
PC:326c4     Total:424      MisBP:0   MisRate:0.00%    MPKI:0.00
PC:10aec     Total:26      MisBP:0   MisRate:0.00%    MPKI:0.00
PC:2d746     Total:1275      MisBP:0   MisRate:0.00%    MPKI:0.00
PC:2d732     Total:1028      MisBP:0   MisRate:0.00%    MPKI:0.00
PC:2c4da     Total:128      MisBP:0   MisRate:0.00%    MPKI:0.00
PC:1376e     Total:724856      MisBP:0   MisRate:0.00%    MPKI:0.00
PC:2d744     Total:1008      MisBP:0   MisRate:0.00%    MPKI:0.00
PC:326c0     Total:424      MisBP:0   MisRate:0.00%    MPKI:0.00
PC:10ae6     Total:25      MisBP:0   MisRate:0.00%    MPKI:0.00
PC:2c4d6     Total:128      MisBP:0   MisRate:0.00%    MPKI:0.00
PC:1376a     Total:2449260      MisBP:0   MisRate:0.00%    MPKI:0.00
PC:2dcde     Total:1      MisBP:0   MisRate:0.00%    MPKI:0.00
PC:325e8     Total:1146      MisBP:0   MisRate:0.00%    MPKI:0.00
PC:2c402     Total:21      MisBP:0   MisRate:0.00%    MPKI:0.00
PC:27942     Total:2      MisBP:0   MisRate:0.00%    MPKI:0.00
PC:2d554     Total:1279      MisBP:0   MisRate:0.00%    MPKI:0.00
PC:147e8     Total:325      MisBP:0   MisRate:0.00%    MPKI:0.00
PC:324d0     Total:1      MisBP:0   MisRate:0.00%    MPKI:0.00
PC:14f72     Total:2463      MisBP:0   MisRate:0.00%    MPKI:0.00
PC:53100     Total:6      MisBP:0   MisRate:0.00%    MPKI:0.00
PC:2d66c     Total:60      MisBP:0   MisRate:0.00%    MPKI:0.00
PC:26e6c     Total:12      MisBP:0   MisRate:0.00%    MPKI:0.00
PC:2ef52     Total:846      MisBP:0   MisRate:0.00%    MPKI:0.00
PC:2c400     Total:21      MisBP:0   MisRate:0.00%    MPKI:0.00
PC:10ed6     Total:7      MisBP:0   MisRate:0.00%    MPKI:0.00
PC:2ccaa     Total:11      MisBP:0   MisRate:0.00%    MPKI:0.00
PC:27940     Total:2      MisBP:0   MisRate:0.00%    MPKI:0.00
PC:2c8bc     Total:20677      MisBP:0   MisRate:0.00%    MPKI:0.00
PC:324d4     Total:1      MisBP:0   MisRate:0.00%    MPKI:0.00
PC:2c4c4     Total:22      MisBP:0   MisRate:0.00%    MPKI:0.00
PC:2d72e     Total:1031      MisBP:0   MisRate:0.00%    MPKI:0.00
PC:10ace     Total:9      MisBP:0   MisRate:0.00%    MPKI:0.00
PC:2c4be     Total:22      MisBP:0   MisRate:0.00%    MPKI:0.00
PC:2d728     Total:1031      MisBP:0   MisRate:0.00%    MPKI:0.00
PC:326a4     Total:423      MisBP:0   MisRate:0.00%    MPKI:0.00
PC:27946     Total:2      MisBP:0   MisRate:0.00%    MPKI:0.00
PC:2d558     Total:1242      MisBP:0   MisRate:0.00%    MPKI:0.00
PC:13774     Total:724524      MisBP:0   MisRate:0.00%    MPKI:0.00
PC:2ccae     Total:11      MisBP:0   MisRate:0.00%    MPKI:0.00
PC:2f46c     Total:82      MisBP:0   MisRate:0.00%    MPKI:0.00
PC:27944     Total:2      MisBP:0   MisRate:0.00%    MPKI:0.00
PC:2c8c0     Total:20676      MisBP:0   MisRate:0.00%    MPKI:0.00
PC:13b54     Total:4014      MisBP:0   MisRate:0.00%    MPKI:0.00
PC:2d556     Total:1247      MisBP:0   MisRate:0.00%    MPKI:0.00
PC:147ea     Total:318      MisBP:0   MisRate:0.00%    MPKI:0.00
PC:3edf8     Total:3      MisBP:0   MisRate:0.00%    MPKI:0.00
PC:325e4     Total:1146      MisBP:0   MisRate:0.00%    MPKI:0.00
PC:10a0e     Total:126      MisBP:0   MisRate:0.00%    MPKI:0.00
PC:35e30     Total:10      MisBP:0   MisRate:0.00%    MPKI:0.00
PC:2d654     Total:1      MisBP:0   MisRate:0.00%    MPKI:0.00
PC:325d0     Total:1146      MisBP:0   MisRate:0.00%    MPKI:0.00
PC:109fa     Total:264      MisBP:0   MisRate:0.00%    MPKI:0.00
PC:30ea0     Total:11      MisBP:0   MisRate:0.00%    MPKI:0.00
PC:2d9c6     Total:237      MisBP:0   MisRate:0.00%    MPKI:0.00
PC:2d668     Total:1      MisBP:0   MisRate:0.00%    MPKI:0.00
PC:2d9c2     Total:237      MisBP:0   MisRate:0.00%    MPKI:0.00
PC:2da7a     Total:18      MisBP:0   MisRate:0.00%    MPKI:0.00
PC:14d0e     Total:646529      MisBP:0   MisRate:0.00%    MPKI:0.00
PC:2c926     Total:20673      MisBP:0   MisRate:0.00%    MPKI:0.00
PC:2da74     Total:18      MisBP:0   MisRate:0.00%    MPKI:0.00
PC:14d08     Total:647100      MisBP:0   MisRate:0.00%    MPKI:0.00
PC:2da02     Total:38      MisBP:0   MisRate:0.00%    MPKI:0.00
PC:148fa     Total:325      MisBP:0   MisRate:0.00%    MPKI:0.00
PC:14916     Total:946      MisBP:0   MisRate:0.00%    MPKI:0.00
PC:14912     Total:318      MisBP:0   MisRate:0.00%    MPKI:0.00
PC:1490e     Total:318      MisBP:0   MisRate:0.00%    MPKI:0.00
PC:1490a     Total:954      MisBP:0   MisRate:0.00%    MPKI:0.00
PC:14906     Total:314      MisBP:0   MisRate:0.00%    MPKI:0.00
PC:14902     Total:320      MisBP:0   MisRate:0.00%    MPKI:0.00
PC:148fe     Total:313      MisBP:0   MisRate:0.00%    MPKI:0.00
PC:2d66a     Total:60      MisBP:0   MisRate:0.00%    MPKI:0.00
PC:2d9fc     Total:39      MisBP:0   MisRate:0.00%    MPKI:0.00
PC:148f6     Total:977      MisBP:0   MisRate:0.00%    MPKI:0.00
PC:2d662     Total:1      MisBP:0   MisRate:0.00%    MPKI:0.00
PC:148f4     Total:978      MisBP:0   MisRate:0.00%    MPKI:0.00
PC:2d660     Total:1      MisBP:0   MisRate:0.00%    MPKI:0.00
PC:325dc     Total:1146      MisBP:0   MisRate:0.00%    MPKI:0.00
PC:2d686     Total:3      MisBP:0   MisRate:0.00%    MPKI:0.00
PC:10a2c     Total:174      MisBP:0   MisRate:0.00%    MPKI:0.00
PC:326cc     Total:424      MisBP:0   MisRate:0.00%    MPKI:0.00
PC:2c4f6     Total:30596      MisBP:0   MisRate:0.00%    MPKI:0.00
PC:1378a     Total:716162      MisBP:0   MisRate:0.00%    MPKI:0.00
PC:2d760     Total:3287      MisBP:0   MisRate:0.00%    MPKI:0.00
PC:326dc     Total:424      MisBP:0   MisRate:0.00%    MPKI:0.00
PC:31cb0     Total:114      MisBP:0   MisRate:0.00%    MPKI:0.00
PC:10af6     Total:25      MisBP:0   MisRate:0.00%    MPKI:0.00
PC:1377a     Total:721484      MisBP:0   MisRate:0.00%    MPKI:0.00
PC:2d750     Total:1273      MisBP:0   MisRate:0.00%    MPKI:0.00
PC:13790     Total:716086      MisBP:0   MisRate:0.00%    MPKI:0.00
PC:31ca0     Total:57      MisBP:0   MisRate:0.00%    MPKI:0.00
PC:10af2     Total:26      MisBP:0   MisRate:0.00%    MPKI:0.00
PC:2c4e2     Total:127      MisBP:0   MisRate:0.00%    MPKI:0.00
PC:13776     Total:724385      MisBP:0   MisRate:0.00%    MPKI:0.00
PC:2d74c     Total:1275      MisBP:0   MisRate:0.00%    MPKI:0.00
PC:326c8     Total:424      MisBP:0   MisRate:0.00%    MPKI:0.00
PC:2c4e0     Total:127      MisBP:0   MisRate:0.00%    MPKI:0.00
PC:31ccc     Total:34885      MisBP:0   MisRate:0.00%    MPKI:0.00
PC:2d9f4     Total:265      MisBP:0   MisRate:0.00%    MPKI:0.00
PC:2c89c     Total:22764      MisBP:0   MisRate:0.00%    MPKI:0.00
PC:27920     Total:5      MisBP:0   MisRate:0.00%    MPKI:0.00
PC:2c894     Total:22765      MisBP:0   MisRate:0.00%    MPKI:0.00
PC:27918     Total:5      MisBP:0   MisRate:0.00%    MPKI:0.00
PC:2c512     Total:35367      MisBP:0   MisRate:0.00%    MPKI:0.00
PC:137a6     Total:714196      MisBP:0   MisRate:0.00%    MPKI:0.00
PC:326f8     Total:424      MisBP:0   MisRate:0.00%    MPKI:0.00
PC:2d9ac     Total:184      MisBP:0   MisRate:0.00%    MPKI:0.00
PC:2cd50     Total:1161      MisBP:0   MisRate:0.00%    MPKI:0.00
PC:2d77a     Total:642      MisBP:0   MisRate:0.00%    MPKI:0.00
PC:2c502     Total:28972      MisBP:0   MisRate:0.00%    MPKI:0.00
PC:13796     Total:715374      MisBP:0   MisRate:0.00%    MPKI:0.00
PC:326e8     Total:424      MisBP:0   MisRate:0.00%    MPKI:0.00
PC:31cbc     Total:55      MisBP:0   MisRate:0.00%    MPKI:0.00
PC:2c4fc     Total:30117      MisBP:0   MisRate:0.00%    MPKI:0.00
PC:3f18e     Total:232      MisBP:0   MisRate:0.00%    MPKI:0.00
PC:2d3de     Total:1      MisBP:0   MisRate:0.00%    MPKI:0.00
PC:3f19a     Total:232      MisBP:0   MisRate:0.00%    MPKI:0.00
PC:2d3dc     Total:3      MisBP:0   MisRate:0.00%    MPKI:0.00
PC:2d3da     Total:3      MisBP:0   MisRate:0.00%    MPKI:0.00
PC:14df8     Total:18628      MisBP:0   MisRate:0.00%    MPKI:0.00
PC:3f196     Total:232      MisBP:0   MisRate:0.00%    MPKI:0.00
PC:2d3d6     Total:5      MisBP:0   MisRate:0.00%    MPKI:0.00
PC:2d3d2     Total:5      MisBP:0   MisRate:0.00%    MPKI:0.00
PC:2d3e0     Total:1      MisBP:0   MisRate:0.00%    MPKI:0.00
PC:2d3d0     Total:5      MisBP:0   MisRate:0.00%    MPKI:0.00
PC:14dee     Total:9376      MisBP:0   MisRate:0.00%    MPKI:0.00
PC:2d3cc     Total:5      MisBP:0   MisRate:0.00%    MPKI:0.00
PC:14dea     Total:9376      MisBP:0   MisRate:0.00%    MPKI:0.00
PC:2d3ca     Total:5      MisBP:0   MisRate:0.00%    MPKI:0.00
PC:2d3c8     Total:5      MisBP:0   MisRate:0.00%    MPKI:0.00
PC:14de4     Total:11582      MisBP:0   MisRate:0.00%    MPKI:0.00
PC:3f182     Total:234      MisBP:0   MisRate:0.00%    MPKI:0.00
PC:2d3f2     Total:3      MisBP:0   MisRate:0.00%    MPKI:0.00
PC:14eca     Total:1399      MisBP:0   MisRate:0.00%    MPKI:0.00
PC:2d4a8     Total:806      MisBP:0   MisRate:0.00%    MPKI:0.00
PC:32424     Total:22      MisBP:0   MisRate:0.00%    MPKI:0.00
PC:14ec6     Total:1400      MisBP:0   MisRate:0.00%    MPKI:0.00
PC:2d4a6     Total:804      MisBP:0   MisRate:0.00%    MPKI:0.00
PC:2d3fc     Total:2      MisBP:0   MisRate:0.00%    MPKI:0.00
PC:2d3fa     Total:3      MisBP:0   MisRate:0.00%    MPKI:0.00
PC:2d3f6     Total:3      MisBP:0   MisRate:0.00%    MPKI:0.00
PC:2d3c2     Total:810      MisBP:0   MisRate:0.00%    MPKI:0.00
PC:2d3f0     Total:4      MisBP:0   MisRate:0.00%    MPKI:0.00
PC:2d3ee     Total:4      MisBP:0   MisRate:0.00%    MPKI:0.00
PC:2d3ea     Total:4      MisBP:0   MisRate:0.00%    MPKI:0.00
PC:2d3e8     Total:4      MisBP:0   MisRate:0.00%    MPKI:0.00
PC:2d3e6     Total:4      MisBP:0   MisRate:0.00%    MPKI:0.00
PC:2d3e4     Total:4      MisBP:0   MisRate:0.00%    MPKI:0.00
PC:2d3e2     Total:1      MisBP:0   MisRate:0.00%    MPKI:0.00
PC:64f22     Total:167      MisBP:0   MisRate:0.00%    MPKI:0.00
PC:64f2e     Total:167      MisBP:0   MisRate:0.00%    MPKI:0.00
PC:2c8e4     Total:20676      MisBP:0   MisRate:0.00%    MPKI:0.00
PC:2f432     Total:43888      MisBP:0   MisRate:0.00%    MPKI:0.00
PC:2cc74     Total:1995      MisBP:0   MisRate:0.00%    MPKI:0.00
PC:2c8e0     Total:20676      MisBP:0   MisRate:0.00%    MPKI:0.00
PC:64f24     Total:167      MisBP:0   MisRate:0.00%    MPKI:0.00
PC:2c8da     Total:20676      MisBP:0   MisRate:0.00%    MPKI:0.00
PC:2da2c     Total:259      MisBP:0   MisRate:0.00%    MPKI:0.00
PC:13b7c     Total:8      MisBP:0   MisRate:0.00%    MPKI:0.00
PC:2c8d8     Total:20676      MisBP:0   MisRate:0.00%    MPKI:0.00
PC:13b6c     Total:23      MisBP:0   MisRate:0.00%    MPKI:0.00
PC:2ca18     Total:83      MisBP:0   MisRate:0.00%    MPKI:0.00
PC:14ddc     Total:11582      MisBP:0   MisRate:0.00%    MPKI:0.00
PC:2da24     Total:259      MisBP:0   MisRate:0.00%    MPKI:0.00
PC:2c380     Total:74      MisBP:0   MisRate:0.00%    MPKI:0.00
PC:2ca10     Total:188      MisBP:0   MisRate:0.00%    MPKI:0.00
PC:14ce0     Total:20852      MisBP:0   MisRate:0.00%    MPKI:0.00
PC:14de0     Total:11582      MisBP:0   MisRate:0.00%    MPKI:0.00
PC:2d3c0     Total:811      MisBP:0   MisRate:0.00%    MPKI:0.00
PC:14dde     Total:11582      MisBP:0   MisRate:0.00%    MPKI:0.00
PC:2d3bc     Total:813      MisBP:0   MisRate:0.00%    MPKI:0.00
PC:2cf78     Total:2      MisBP:0   MisRate:0.00%    MPKI:0.00
PC:64f44     Total:119      MisBP:0   MisRate:0.00%    MPKI:0.00
PC:2c8fa     Total:20676      MisBP:0   MisRate:0.00%    MPKI:0.00
PC:2da4c     Total:70      MisBP:0   MisRate:0.00%    MPKI:0.00
PC:32428     Total:40      MisBP:0   MisRate:0.00%    MPKI:0.00
PC:2f448     Total:41713      MisBP:0   MisRate:0.00%    MPKI:0.00
PC:2da4a     Total:70      MisBP:0   MisRate:0.00%    MPKI:0.00
PC:14cde     Total:20853      MisBP:0   MisRate:0.00%    MPKI:0.00
PC:2c8f6     Total:20676      MisBP:0   MisRate:0.00%    MPKI:0.00
PC:2f43a     Total:43888      MisBP:0   MisRate:0.00%    MPKI:0.00
PC:64f32     Total:167      MisBP:0   MisRate:0.00%    MPKI:0.00
PC:2c8e8     Total:20676      MisBP:0   MisRate:0.00%    MPKI:0.00
PC:14efa     Total:9666      MisBP:0   MisRate:0.00%    MPKI:0.00
PC:26666     Total:1      MisBP:0   MisRate:0.00%    MPKI:0.00
PC:2d4e2     Total:687      MisBP:0   MisRate:0.00%    MPKI:0.00
PC:26662     Total:1      MisBP:0   MisRate:0.00%    MPKI:0.00
PC:2d4de     Total:695      MisBP:0   MisRate:0.00%    MPKI:0.00
PC:2dc68     Total:566      MisBP:0   MisRate:0.00%    MPKI:0.00
PC:26660     Total:1      MisBP:0   MisRate:0.00%    MPKI:0.00
PC:2d4dc     Total:718      MisBP:0   MisRate:0.00%    MPKI:0.00
PC:32458     Total:638      MisBP:0   MisRate:0.00%    MPKI:0.00
PC:2dc6e     Total:565      MisBP:0   MisRate:0.00%    MPKI:0.00
PC:2665c     Total:1      MisBP:0   MisRate:0.00%    MPKI:0.00
PC:2d4d8     Total:734      MisBP:0   MisRate:0.00%    MPKI:0.00
PC:32454     Total:640      MisBP:0   MisRate:0.00%    MPKI:0.00
PC:2665a     Total:1      MisBP:0   MisRate:0.00%    MPKI:0.00
PC:2d4d6     Total:147      MisBP:0   MisRate:0.00%    MPKI:0.00
PC:14ef4     Total:9670      MisBP:0   MisRate:0.00%    MPKI:0.00
PC:2dc60     Total:568      MisBP:0   MisRate:0.00%    MPKI:0.00
PC:26658     Total:1      MisBP:0   MisRate:0.00%    MPKI:0.00
PC:2d4e8     Total:681      MisBP:0   MisRate:0.00%    MPKI:0.00
PC:26670     Total:1      MisBP:0   MisRate:0.00%    MPKI:0.00
PC:2d4ec     Total:694      MisBP:0   MisRate:0.00%    MPKI:0.00
PC:32468     Total:630      MisBP:0   MisRate:0.00%    MPKI:0.00
PC:14f0a     Total:70      MisBP:0   MisRate:0.00%    MPKI:0.00
PC:2666e     Total:1      MisBP:0   MisRate:0.00%    MPKI:0.00
PC:2d4ea     Total:697      MisBP:0   MisRate:0.00%    MPKI:0.00
PC:2cc40     Total:2181      MisBP:0   MisRate:0.00%    MPKI:0.00
PC:2666c     Total:1      MisBP:0   MisRate:0.00%    MPKI:0.00
PC:2d4d4     Total:147      MisBP:0   MisRate:0.00%    MPKI:0.00
PC:32464     Total:638      MisBP:0   MisRate:0.00%    MPKI:0.00
PC:2cc3e     Total:2275      MisBP:0   MisRate:0.00%    MPKI:0.00
PC:14f06     Total:70      MisBP:0   MisRate:0.00%    MPKI:0.00
PC:2dc72     Total:565      MisBP:0   MisRate:0.00%    MPKI:0.00
PC:2d4e4     Total:685      MisBP:0   MisRate:0.00%    MPKI:0.00
PC:32460     Total:638      MisBP:0   MisRate:0.00%    MPKI:0.00
PC:14f02     Total:18263      MisBP:0   MisRate:0.00%    MPKI:0.00
PC:2d4b6     Total:123      MisBP:0   MisRate:0.00%    MPKI:0.00
PC:3243c     Total:474      MisBP:0   MisRate:0.00%    MPKI:0.00
PC:26640     Total:9      MisBP:0   MisRate:0.00%    MPKI:0.00
PC:2d4bc     Total:751      MisBP:0   MisRate:0.00%    MPKI:0.00
PC:32438     Total:475      MisBP:0   MisRate:0.00%    MPKI:0.00
PC:2d4ba     Total:108      MisBP:0   MisRate:0.00%    MPKI:0.00
PC:2d4b8     Total:108      MisBP:0   MisRate:0.00%    MPKI:0.00
PC:32434     Total:38      MisBP:0   MisRate:0.00%    MPKI:0.00
PC:14ed6     Total:1399      MisBP:0   MisRate:0.00%    MPKI:0.00
PC:2d4c0     Total:750      MisBP:0   MisRate:0.00%    MPKI:0.00
PC:14ed4     Total:1399      MisBP:0   MisRate:0.00%    MPKI:0.00
PC:2d4b4     Total:123      MisBP:0   MisRate:0.00%    MPKI:0.00
PC:32430     Total:38      MisBP:0   MisRate:0.00%    MPKI:0.00
PC:2d4b0     Total:123      MisBP:0   MisRate:0.00%    MPKI:0.00
PC:3242c     Total:38      MisBP:0   MisRate:0.00%    MPKI:0.00
PC:14ece     Total:1399      MisBP:0   MisRate:0.00%    MPKI:0.00
PC:2d4ae     Total:123      MisBP:0   MisRate:0.00%    MPKI:0.00
PC:2d4c8     Total:158      MisBP:0   MisRate:0.00%    MPKI:0.00
PC:32450     Total:640      MisBP:0   MisRate:0.00%    MPKI:0.00
PC:26654     Total:1      MisBP:0   MisRate:0.00%    MPKI:0.00
PC:3244c     Total:640      MisBP:0   MisRate:0.00%    MPKI:0.00
PC:26652     Total:1      MisBP:0   MisRate:0.00%    MPKI:0.00
PC:2d4ce     Total:158      MisBP:0   MisRate:0.00%    MPKI:0.00
PC:2d4cc     Total:158      MisBP:0   MisRate:0.00%    MPKI:0.00
PC:32448     Total:640      MisBP:0   MisRate:0.00%    MPKI:0.00
PC:14eea     Total:10115      MisBP:0   MisRate:0.00%    MPKI:0.00
PC:13ca4     Total:4      MisBP:0   MisRate:0.00%    MPKI:0.00
PC:14ee6     Total:10115      MisBP:0   MisRate:0.00%    MPKI:0.00
PC:32440     Total:402      MisBP:0   MisRate:0.00%    MPKI:0.00
PC:14ee2     Total:10115      MisBP:0   MisRate:0.00%    MPKI:0.00
PC:26646     Total:1      MisBP:0   MisRate:0.00%    MPKI:0.00
PC:2d4c2     Total:750      MisBP:0   MisRate:0.00%    MPKI:0.00
PC:14ee0     Total:10115      MisBP:0   MisRate:0.00%    MPKI:0.00
PC:26644     Total:1      MisBP:0   MisRate:0.00%    MPKI:0.00
PC:10ab8     Total:13      MisBP:0   MisRate:0.00%    MPKI:0.00
PC:10aba     Total:13      MisBP:0   MisRate:0.00%    MPKI:0.00
PC:2d714     Total:1113      MisBP:0   MisRate:0.00%    MPKI:0.00
PC:32690     Total:1109      MisBP:0   MisRate:0.00%    MPKI:0.00
PC:2da50     Total:70      MisBP:0   MisRate:0.00%    MPKI:0.00
PC:14ce4     Total:978830      MisBP:0   MisRate:0.00%    MPKI:0.00
PC:2ca3c     Total:1139      MisBP:0   MisRate:0.00%    MPKI:0.00
PC:13cd0     Total:6      MisBP:0   MisRate:0.00%    MPKI:0.00
PC:34176     Total:17      MisBP:0   MisRate:0.00%    MPKI:0.00
PC:2d7ba     Total:1      MisBP:0   MisRate:0.00%    MPKI:0.00
PC:2c4a8     Total:29      MisBP:0   MisRate:0.00%    MPKI:0.00
PC:1373c     Total:526      MisBP:0   MisRate:0.00%    MPKI:0.00
PC:2d712     Total:1113      MisBP:0   MisRate:0.00%    MPKI:0.00
PC:10ab6     Total:13      MisBP:0   MisRate:0.00%    MPKI:0.00
PC:2c4a6     Total:29      MisBP:0   MisRate:0.00%    MPKI:0.00
PC:1373a     Total:526      MisBP:0   MisRate:0.00%    MPKI:0.00
PC:3268c     Total:1109      MisBP:0   MisRate:0.00%    MPKI:0.00
PC:2ef40     Total:852      MisBP:0   MisRate:0.00%    MPKI:0.00
PC:2c8de     Total:20676      MisBP:0   MisRate:0.00%    MPKI:0.00
PC:13d58     Total:8      MisBP:0   MisRate:0.00%    MPKI:0.00
PC:2da0a     Total:271      MisBP:0   MisRate:0.00%    MPKI:0.00
PC:64f00     Total:195      MisBP:0   MisRate:0.00%    MPKI:0.00
PC:2c8b6     Total:22731      MisBP:0   MisRate:0.00%    MPKI:0.00
PC:13b4a     Total:4211      MisBP:0   MisRate:0.00%    MPKI:0.00
PC:2c366     Total:75      MisBP:0   MisRate:0.00%    MPKI:0.00
PC:2da32     Total:66      MisBP:0   MisRate:0.00%    MPKI:0.00
PC:64f28     Total:167      MisBP:0   MisRate:0.00%    MPKI:0.00
PC:13d00     Total:7      MisBP:0   MisRate:0.00%    MPKI:0.00
PC:13b72     Total:16      MisBP:0   MisRate:0.00%    MPKI:0.00
PC:14d88     Total:989023      MisBP:0   MisRate:0.00%    MPKI:0.00
PC:2daf4     Total:3      MisBP:0   MisRate:0.00%    MPKI:0.00
PC:2ef94     Total:923      MisBP:0   MisRate:0.00%    MPKI:0.00
PC:2cac0     Total:11      MisBP:0   MisRate:0.00%    MPKI:0.00
PC:13d54     Total:8      MisBP:0   MisRate:0.00%    MPKI:0.00
PC:2da06     Total:38      MisBP:0   MisRate:0.00%    MPKI:0.00
PC:13a2e     Total:11      MisBP:0   MisRate:0.00%    MPKI:0.00
PC:13d1c     Total:287      MisBP:0   MisRate:0.00%    MPKI:0.00
PC:14d4e     Total:25      MisBP:0   MisRate:0.00%    MPKI:0.00
PC:2daba     Total:2      MisBP:0   MisRate:0.00%    MPKI:0.00
PC:2ef5a     Total:842      MisBP:0   MisRate:0.00%    MPKI:0.00
PC:13a30     Total:11      MisBP:0   MisRate:0.00%    MPKI:0.00
PC:2ca86     Total:1127      MisBP:0   MisRate:0.00%    MPKI:0.00
PC:2dab8     Total:2      MisBP:0   MisRate:0.00%    MPKI:0.00
PC:2ef58     Total:842      MisBP:0   MisRate:0.00%    MPKI:0.00
PC:2ca88     Total:1127      MisBP:0   MisRate:0.00%    MPKI:0.00
PC:2ca84     Total:1127      MisBP:0   MisRate:0.00%    MPKI:0.00
PC:13d18     Total:287      MisBP:0   MisRate:0.00%    MPKI:0.00
PC:14d4a     Total:27      MisBP:0   MisRate:0.00%    MPKI:0.00
PC:2dab6     Total:2      MisBP:0   MisRate:0.00%    MPKI:0.00
PC:14d48     Total:27      MisBP:0   MisRate:0.00%    MPKI:0.00
PC:2dab4     Total:2      MisBP:0   MisRate:0.00%    MPKI:0.00
PC:26e6e     Total:12      MisBP:0   MisRate:0.00%    MPKI:0.00
PC:14d52     Total:25      MisBP:0   MisRate:0.00%    MPKI:0.00
PC:14d58     Total:4      MisBP:0   MisRate:0.00%    MPKI:0.00
PC:2dac4     Total:2      MisBP:0   MisRate:0.00%    MPKI:0.00
PC:2ef64     Total:842      MisBP:0   MisRate:0.00%    MPKI:0.00
PC:13a3a     Total:3823      MisBP:0   MisRate:0.00%    MPKI:0.00
PC:2ca90     Total:1127      MisBP:0   MisRate:0.00%    MPKI:0.00
PC:13d24     Total:287      MisBP:0   MisRate:0.00%    MPKI:0.00
PC:14d54     Total:25      MisBP:0   MisRate:0.00%    MPKI:0.00
PC:2dac0     Total:2      MisBP:0   MisRate:0.00%    MPKI:0.00
PC:2cac4     Total:11      MisBP:0   MisRate:0.00%    MPKI:0.00
PC:2dabe     Total:2      MisBP:0   MisRate:0.00%    MPKI:0.00
PC:2ef5e     Total:842      MisBP:0   MisRate:0.00%    MPKI:0.00
PC:13a34     Total:11      MisBP:0   MisRate:0.00%    MPKI:0.00
PC:2ca8a     Total:1127      MisBP:0   MisRate:0.00%    MPKI:0.00
PC:14d50     Total:25      MisBP:0   MisRate:0.00%    MPKI:0.00
PC:2ef5c     Total:842      MisBP:0   MisRate:0.00%    MPKI:0.00
PC:13a32     Total:11      MisBP:0   MisRate:0.00%    MPKI:0.00
PC:2c918     Total:20673      MisBP:0   MisRate:0.00%    MPKI:0.00
PC:13bb2     Total:3      MisBP:0   MisRate:0.00%    MPKI:0.00
PC:2c91c     Total:20673      MisBP:0   MisRate:0.00%    MPKI:0.00
PC:2da10     Total:271      MisBP:0   MisRate:0.00%    MPKI:0.00
PC:64f06     Total:195      MisBP:0   MisRate:0.00%    MPKI:0.00
PC:2cf76     Total:2      MisBP:0   MisRate:0.00%    MPKI:0.00
PC:14cc4     Total:228365      MisBP:0   MisRate:0.00%    MPKI:0.00
PC:2c9fc     Total:229      MisBP:0   MisRate:0.00%    MPKI:0.00
PC:64f62     Total:69      MisBP:0   MisRate:0.00%    MPKI:0.00
PC:2c91e     Total:20673      MisBP:0   MisRate:0.00%    MPKI:0.00
PC:13bac     Total:10      MisBP:0   MisRate:0.00%    MPKI:0.00
PC:2d72a     Total:1031      MisBP:0   MisRate:0.00%    MPKI:0.00
PC:2d39c     Total:818      MisBP:0   MisRate:0.00%    MPKI:0.00
PC:14630     Total:1      MisBP:0   MisRate:0.00%    MPKI:0.00
PC:3f192     Total:232      MisBP:0   MisRate:0.00%    MPKI:0.00
PC:2caf2     Total:10      MisBP:0   MisRate:0.00%    MPKI:0.00
PC:14dec     Total:9376      MisBP:0   MisRate:0.00%    MPKI:0.00
PC:14d0c     Total:646514      MisBP:0   MisRate:0.00%    MPKI:0.00
PC:2c92c     Total:20672      MisBP:0   MisRate:0.00%    MPKI:0.00
PC:13bc0     Total:6      MisBP:0   MisRate:0.00%    MPKI:0.00
PC:2da7c     Total:18      MisBP:0   MisRate:0.00%    MPKI:0.00
PC:14d10     Total:638883      MisBP:0   MisRate:0.00%    MPKI:0.00
PC:64f72     Total:58      MisBP:0   MisRate:0.00%    MPKI:0.00
PC:2c928     Total:20673      MisBP:0   MisRate:0.00%    MPKI:0.00
PC:13bbc     Total:7      MisBP:0   MisRate:0.00%    MPKI:0.00
PC:2da78     Total:18      MisBP:0   MisRate:0.00%    MPKI:0.00
PC:3f18a     Total:233      MisBP:0   MisRate:0.00%    MPKI:0.00
PC:64f6c     Total:69      MisBP:0   MisRate:0.00%    MPKI:0.00
PC:2c922     Total:20673      MisBP:0   MisRate:0.00%    MPKI:0.00
PC:13bb6     Total:3      MisBP:0   MisRate:0.00%    MPKI:0.00
PC:2f470     Total:75      MisBP:0   MisRate:0.00%    MPKI:0.00
PC:2da72     Total:18      MisBP:0   MisRate:0.00%    MPKI:0.00
PC:14d06     Total:647101      MisBP:0   MisRate:0.00%    MPKI:0.00
PC:64f68     Total:69      MisBP:0   MisRate:0.00%    MPKI:0.00
PC:2d670     Total:4      MisBP:0   MisRate:0.00%    MPKI:0.00
PC:14d76     Total:3      MisBP:0   MisRate:0.00%    MPKI:0.00
PC:2dae2     Total:2      MisBP:0   MisRate:0.00%    MPKI:0.00
PC:2ef82     Total:960      MisBP:0   MisRate:0.00%    MPKI:0.00
PC:13a58     Total:3291      MisBP:0   MisRate:0.00%    MPKI:0.00
PC:2caae     Total:32      MisBP:0   MisRate:0.00%    MPKI:0.00
PC:13d42     Total:7      MisBP:0   MisRate:0.00%    MPKI:0.00
PC:14f78     Total:137      MisBP:0   MisRate:0.00%    MPKI:0.00
PC:2dce4     Total:1      MisBP:0   MisRate:0.00%    MPKI:0.00
PC:2cab2     Total:32      MisBP:0   MisRate:0.00%    MPKI:0.00
PC:325ec     Total:1146      MisBP:0   MisRate:0.00%    MPKI:0.00
PC:2c406     Total:21      MisBP:0   MisRate:0.00%    MPKI:0.00
PC:33b40     Total:1      MisBP:0   MisRate:0.00%    MPKI:0.00
PC:14d74     Total:3      MisBP:0   MisRate:0.00%    MPKI:0.00
PC:14d8c     Total:988812      MisBP:0   MisRate:0.00%    MPKI:0.00
PC:2daf8     Total:2      MisBP:0   MisRate:0.00%    MPKI:0.00
PC:2ef98     Total:923      MisBP:0   MisRate:0.00%    MPKI:0.00
PC:14d7e     Total:1      MisBP:0   MisRate:0.00%    MPKI:0.00
PC:2c390     Total:59      MisBP:0   MisRate:0.00%    MPKI:0.00
PC:2d5fa     Total:180      MisBP:0   MisRate:0.00%    MPKI:0.00
PC:2ccb0     Total:11      MisBP:0   MisRate:0.00%    MPKI:0.00
PC:14ce8     Total:977865      MisBP:0   MisRate:0.00%    MPKI:0.00
PC:2da54     Total:70      MisBP:0   MisRate:0.00%    MPKI:0.00
PC:2ca20     Total:83      MisBP:0   MisRate:0.00%    MPKI:0.00
PC:14de2     Total:11582      MisBP:0   MisRate:0.00%    MPKI:0.00
PC:3f180     Total:1642      MisBP:0   MisRate:0.00%    MPKI:0.00
PC:2dc78     Total:549      MisBP:0   MisRate:0.00%    MPKI:0.00
PC:2daea     Total:3      MisBP:0   MisRate:0.00%    MPKI:0.00
PC:14d7c     Total:1      MisBP:0   MisRate:0.00%    MPKI:0.00
PC:2dae8     Total:3      MisBP:0   MisRate:0.00%    MPKI:0.00
PC:2d9fa     Total:39      MisBP:0   MisRate:0.00%    MPKI:0.00
PC:64ef0     Total:197      MisBP:0   MisRate:0.00%    MPKI:0.00
PC:14f3c     Total:5931      MisBP:0   MisRate:0.00%    MPKI:0.00
PC:14d7a     Total:1      MisBP:0   MisRate:0.00%    MPKI:0.00
PC:2c8c6     Total:20676      MisBP:0   MisRate:0.00%    MPKI:0.00
PC:2f474     Total:75      MisBP:0   MisRate:0.00%    MPKI:0.00
PC:14f7c     Total:137      MisBP:0   MisRate:0.00%    MPKI:0.00
PC:2d674     Total:4      MisBP:0   MisRate:0.00%    MPKI:0.00
PC:325f0     Total:1146      MisBP:0   MisRate:0.00%    MPKI:0.00
PC:2c40a     Total:21      MisBP:0   MisRate:0.00%    MPKI:0.00
PC:33b44     Total:1      MisBP:0   MisRate:0.00%    MPKI:0.00
PC:2ccb4     Total:11      MisBP:0   MisRate:0.00%    MPKI:0.00
PC:2794a     Total:1      MisBP:0   MisRate:0.00%    MPKI:0.00
PC:2ccb6     Total:11      MisBP:0   MisRate:0.00%    MPKI:0.00
PC:2d55c     Total:2222      MisBP:0   MisRate:0.00%    MPKI:0.00
PC:147f0     Total:371      MisBP:0   MisRate:0.00%    MPKI:0.00
PC:324d8     Total:1      MisBP:0   MisRate:0.00%    MPKI:0.00
PC:14f7a     Total:137      MisBP:0   MisRate:0.00%    MPKI:0.00
PC:127bc     Total:5      MisBP:0   MisRate:0.00%    MPKI:0.00
PC:53108     Total:9      MisBP:0   MisRate:0.00%    MPKI:0.00
PC:2dce6     Total:1      MisBP:0   MisRate:0.00%    MPKI:0.00
PC:2c408     Total:21      MisBP:0   MisRate:0.00%    MPKI:0.00
PC:2794e     Total:1      MisBP:0   MisRate:0.00%    MPKI:0.00
PC:324e0     Total:1      MisBP:0   MisRate:0.00%    MPKI:0.00
PC:14f82     Total:2509      MisBP:0   MisRate:0.00%    MPKI:0.00
PC:127c4     Total:6      MisBP:0   MisRate:0.00%    MPKI:0.00
PC:2dcee     Total:1      MisBP:0   MisRate:0.00%    MPKI:0.00
PC:2c410     Total:21      MisBP:0   MisRate:0.00%    MPKI:0.00
PC:33b4a     Total:1      MisBP:0   MisRate:0.00%    MPKI:0.00
PC:10ee6     Total:7      MisBP:0   MisRate:0.00%    MPKI:0.00
PC:2ccba     Total:11      MisBP:0   MisRate:0.00%    MPKI:0.00
PC:10ede     Total:7      MisBP:0   MisRate:0.00%    MPKI:0.00
PC:2c8ca     Total:20676      MisBP:0   MisRate:0.00%    MPKI:0.00
PC:13b5e     Total:4016      MisBP:0   MisRate:0.00%    MPKI:0.00
PC:324dc     Total:1      MisBP:0   MisRate:0.00%    MPKI:0.00
PC:14f7e     Total:137      MisBP:0   MisRate:0.00%    MPKI:0.00
PC:127c0     Total:4      MisBP:0   MisRate:0.00%    MPKI:0.00
PC:5310c     Total:9      MisBP:0   MisRate:0.00%    MPKI:0.00
PC:2dcea     Total:1      MisBP:0   MisRate:0.00%    MPKI:0.00
PC:2d644     Total:1      MisBP:0   MisRate:0.00%    MPKI:0.00
PC:325c4     Total:1146      MisBP:0   MisRate:0.00%    MPKI:0.00
PC:2c3de     Total:69      MisBP:0   MisRate:0.00%    MPKI:0.00
PC:2cc88     Total:12      MisBP:0   MisRate:0.00%    MPKI:0.00
PC:2d530     Total:270      MisBP:0   MisRate:0.00%    MPKI:0.00
PC:324ac     Total:2      MisBP:0   MisRate:0.00%    MPKI:0.00
PC:2791c     Total:5      MisBP:0   MisRate:0.00%    MPKI:0.00
PC:13b2c     Total:11715      MisBP:0   MisRate:0.00%    MPKI:0.00
PC:2d52e     Total:270      MisBP:0   MisRate:0.00%    MPKI:0.00
PC:2d648     Total:1      MisBP:0   MisRate:0.00%    MPKI:0.00
PC:325c0     Total:1146      MisBP:0   MisRate:0.00%    MPKI:0.00
PC:2c3da     Total:69      MisBP:0   MisRate:0.00%    MPKI:0.00
PC:2cc84     Total:12      MisBP:0   MisRate:0.00%    MPKI:0.00
PC:2d52a     Total:270      MisBP:0   MisRate:0.00%    MPKI:0.00
PC:2d640     Total:552      MisBP:0   MisRate:0.00%    MPKI:0.00
PC:148d4     Total:33      MisBP:0   MisRate:0.00%    MPKI:0.00
PC:325bc     Total:1148      MisBP:0   MisRate:0.00%    MPKI:0.00
PC:64fde     Total:2      MisBP:0   MisRate:0.00%    MPKI:0.00
PC:2792a     Total:4      MisBP:0   MisRate:0.00%    MPKI:0.00
PC:2c8a6     Total:22754      MisBP:0   MisRate:0.00%    MPKI:0.00
PC:13b3a     Total:4377      MisBP:0   MisRate:0.00%    MPKI:0.00
PC:2d53c     Total:1402      MisBP:0   MisRate:0.00%    MPKI:0.00
PC:324b8     Total:2      MisBP:0   MisRate:0.00%    MPKI:0.00
PC:2d538     Total:1402      MisBP:0   MisRate:0.00%    MPKI:0.00
PC:324b4     Total:2      MisBP:0   MisRate:0.00%    MPKI:0.00
PC:26e50     Total:33      MisBP:0   MisRate:0.00%    MPKI:0.00
PC:147f8     Total:364      MisBP:0   MisRate:0.00%    MPKI:0.00
PC:2ef36     Total:905      MisBP:0   MisRate:0.00%    MPKI:0.00
PC:13a0c     Total:36      MisBP:0   MisRate:0.00%    MPKI:0.00
PC:2cc8e     Total:12      MisBP:0   MisRate:0.00%    MPKI:0.00
PC:2f44c     Total:83      MisBP:0   MisRate:0.00%    MPKI:0.00
PC:2d536     Total:1403      MisBP:0   MisRate:0.00%    MPKI:0.00
PC:2cc8c     Total:12      MisBP:0   MisRate:0.00%    MPKI:0.00
PC:2d532     Total:1403      MisBP:0   MisRate:0.00%    MPKI:0.00
PC:2dcf6     Total:1      MisBP:0   MisRate:0.00%    MPKI:0.00
PC:5311c     Total:9      MisBP:0   MisRate:0.00%    MPKI:0.00
PC:2dcfa     Total:1      MisBP:0   MisRate:0.00%    MPKI:0.00
PC:2795a     Total:1      MisBP:0   MisRate:0.00%    MPKI:0.00
PC:2d56c     Total:1297      MisBP:0   MisRate:0.00%    MPKI:0.00
PC:324e8     Total:1      MisBP:0   MisRate:0.00%    MPKI:0.00
PC:14f8a     Total:2044      MisBP:0   MisRate:0.00%    MPKI:0.00
PC:127cc     Total:9      MisBP:0   MisRate:0.00%    MPKI:0.00
PC:53118     Total:9      MisBP:0   MisRate:0.00%    MPKI:0.00
PC:127d0     Total:9      MisBP:0   MisRate:0.00%    MPKI:0.00
PC:2c418     Total:20      MisBP:0   MisRate:0.00%    MPKI:0.00
PC:33b52     Total:1      MisBP:0   MisRate:0.00%    MPKI:0.00
PC:10eee     Total:7      MisBP:0   MisRate:0.00%    MPKI:0.00
PC:136ac     Total:30909251      MisBP:0   MisRate:0.00%    MPKI:0.00
PC:27958     Total:1      MisBP:0   MisRate:0.00%    MPKI:0.00
PC:2c8d4     Total:20676      MisBP:0   MisRate:0.00%    MPKI:0.00
PC:13b68     Total:23      MisBP:0   MisRate:0.00%    MPKI:0.00
PC:10ef4     Total:7      MisBP:0   MisRate:0.00%    MPKI:0.00
PC:2d572     Total:1274      MisBP:0   MisRate:0.00%    MPKI:0.00
PC:14806     Total:359      MisBP:0   MisRate:0.00%    MPKI:0.00
PC:14f90     Total:13      MisBP:0   MisRate:0.00%    MPKI:0.00
PC:5311e     Total:36      MisBP:0   MisRate:0.00%    MPKI:0.00
PC:2d688     Total:3      MisBP:0   MisRate:0.00%    MPKI:0.00
PC:32604     Total:1142      MisBP:0   MisRate:0.00%    MPKI:0.00
PC:2c41e     Total:19      MisBP:0   MisRate:0.00%    MPKI:0.00
PC:33b58     Total:2      MisBP:0   MisRate:0.00%    MPKI:0.00
PC:14f88     Total:2044      MisBP:0   MisRate:0.00%    MPKI:0.00
PC:136b2     Total:3047153      MisBP:0   MisRate:0.00%    MPKI:0.00
PC:2ccc8     Total:10      MisBP:0   MisRate:0.00%    MPKI:0.00
PC:4a9b0     Total:9      MisBP:0   MisRate:0.00%    MPKI:0.00
PC:2d9aa     Total:184      MisBP:0   MisRate:0.00%    MPKI:0.00
PC:2d570     Total:1276      MisBP:0   MisRate:0.00%    MPKI:0.00
PC:324ec     Total:1      MisBP:0   MisRate:0.00%    MPKI:0.00
PC:14f8e     Total:13      MisBP:0   MisRate:0.00%    MPKI:0.00
PC:10a22     Total:179      MisBP:0   MisRate:0.00%    MPKI:0.00
PC:2dcf2     Total:1      MisBP:0   MisRate:0.00%    MPKI:0.00
PC:27954     Total:1      MisBP:0   MisRate:0.00%    MPKI:0.00
PC:13b64     Total:11735      MisBP:0   MisRate:0.00%    MPKI:0.00
PC:2d566     Total:1315      MisBP:0   MisRate:0.00%    MPKI:0.00
PC:14f84     Total:2509      MisBP:0   MisRate:0.00%    MPKI:0.00
PC:53112     Total:9      MisBP:0   MisRate:0.00%    MPKI:0.00
PC:2d67c     Total:4      MisBP:0   MisRate:0.00%    MPKI:0.00
PC:325f8     Total:1146      MisBP:0   MisRate:0.00%    MPKI:0.00
PC:53114     Total:9      MisBP:0   MisRate:0.00%    MPKI:0.00
PC:2c412     Total:21      MisBP:0   MisRate:0.00%    MPKI:0.00
PC:2ccbc     Total:11      MisBP:0   MisRate:0.00%    MPKI:0.00
PC:2f47a     Total:75      MisBP:0   MisRate:0.00%    MPKI:0.00
PC:27952     Total:1      MisBP:0   MisRate:0.00%    MPKI:0.00
PC:2c8ce     Total:20676      MisBP:0   MisRate:0.00%    MPKI:0.00
PC:13b62     Total:11737      MisBP:0   MisRate:0.00%    MPKI:0.00
PC:2d564     Total:1318      MisBP:0   MisRate:0.00%    MPKI:0.00
PC:4a9a8     Total:38      MisBP:0   MisRate:0.00%    MPKI:0.00
PC:2dcf4     Total:1      MisBP:0   MisRate:0.00%    MPKI:0.00
PC:2d680     Total:3      MisBP:0   MisRate:0.00%    MPKI:0.00
PC:325fc     Total:1146      MisBP:0   MisRate:0.00%    MPKI:0.00
PC:10a26     Total:174      MisBP:0   MisRate:0.00%    MPKI:0.00
PC:2c416     Total:20      MisBP:0   MisRate:0.00%    MPKI:0.00
PC:33b50     Total:1      MisBP:0   MisRate:0.00%    MPKI:0.00
PC:2ccc0     Total:10      MisBP:0   MisRate:0.00%    MPKI:0.00
PC:2f47e     Total:82      MisBP:0   MisRate:0.00%    MPKI:0.00
PC:2c3d6     Total:69      MisBP:0   MisRate:0.00%    MPKI:0.00
PC:27956     Total:1      MisBP:0   MisRate:0.00%    MPKI:0.00
PC:2c8d2     Total:20676      MisBP:0   MisRate:0.00%    MPKI:0.00
PC:13b66     Total:11735      MisBP:0   MisRate:0.00%    MPKI:0.00
PC:2d568     Total:1310      MisBP:0   MisRate:0.00%    MPKI:0.00
PC:147fc     Total:383      MisBP:0   MisRate:0.00%    MPKI:0.00
PC:324e4     Total:1      MisBP:0   MisRate:0.00%    MPKI:0.00
PC:127c8     Total:6      MisBP:0   MisRate:0.00%    MPKI:0.00
PC:2c3b4     Total:75      MisBP:0   MisRate:0.00%    MPKI:0.00
PC:3259c     Total:1148      MisBP:0   MisRate:0.00%    MPKI:0.00
PC:2c3b6     Total:375      MisBP:0   MisRate:0.00%    MPKI:0.00
PC:2cc60     Total:2073      MisBP:0   MisRate:0.00%    MPKI:0.00
PC:2d508     Total:900      MisBP:0   MisRate:0.00%    MPKI:0.00
PC:32484     Total:615      MisBP:0   MisRate:0.00%    MPKI:0.00
PC:14f26     Total:5989      MisBP:0   MisRate:0.00%    MPKI:0.00
PC:2dc92     Total:52      MisBP:0   MisRate:0.00%    MPKI:0.00
PC:2d61e     Total:1334      MisBP:0   MisRate:0.00%    MPKI:0.00
PC:2d620     Total:1310      MisBP:0   MisRate:0.00%    MPKI:0.00
PC:2cc5e     Total:2073      MisBP:0   MisRate:0.00%    MPKI:0.00
PC:278f4     Total:10      MisBP:0   MisRate:0.00%    MPKI:0.00
PC:2d506     Total:900      MisBP:0   MisRate:0.00%    MPKI:0.00
PC:2cc5c     Total:2073      MisBP:0   MisRate:0.00%    MPKI:0.00
PC:2d504     Total:900      MisBP:0   MisRate:0.00%    MPKI:0.00
PC:32480     Total:615      MisBP:0   MisRate:0.00%    MPKI:0.00
PC:14f22     Total:5990      MisBP:0   MisRate:0.00%    MPKI:0.00
PC:2cc5a     Total:2073      MisBP:0   MisRate:0.00%    MPKI:0.00
PC:32488     Total:612      MisBP:0   MisRate:0.00%    MPKI:0.00
PC:2dc9a     Total:1      MisBP:0   MisRate:0.00%    MPKI:0.00
PC:2cc66     Total:2073      MisBP:0   MisRate:0.00%    MPKI:0.00
PC:278fc     Total:10      MisBP:0   MisRate:0.00%    MPKI:0.00
PC:13b0c     Total:9247      MisBP:0   MisRate:0.00%    MPKI:0.00
PC:2d50e     Total:919      MisBP:0   MisRate:0.00%    MPKI:0.00
PC:2c3ba     Total:75      MisBP:0   MisRate:0.00%    MPKI:0.00
PC:2cc64     Total:2073      MisBP:0   MisRate:0.00%    MPKI:0.00
PC:2d50c     Total:919      MisBP:0   MisRate:0.00%    MPKI:0.00
PC:278f0     Total:20      MisBP:0   MisRate:0.00%    MPKI:0.00
PC:14f2a     Total:5985      MisBP:0   MisRate:0.00%    MPKI:0.00
PC:2dc96     Total:1      MisBP:0   MisRate:0.00%    MPKI:0.00
PC:2d622     Total:1309      MisBP:0   MisRate:0.00%    MPKI:0.00
PC:2c3b8     Total:75      MisBP:0   MisRate:0.00%    MPKI:0.00
PC:278f8     Total:10      MisBP:0   MisRate:0.00%    MPKI:0.00
PC:13b08     Total:9247      MisBP:0   MisRate:0.00%    MPKI:0.00
PC:2d50a     Total:920      MisBP:0   MisRate:0.00%    MPKI:0.00
PC:26676     Total:2      MisBP:0   MisRate:0.00%    MPKI:0.00
PC:2d4f8     Total:896      MisBP:0   MisRate:0.00%    MPKI:0.00
PC:32474     Total:630      MisBP:0   MisRate:0.00%    MPKI:0.00
PC:278e2     Total:256      MisBP:0   MisRate:0.00%    MPKI:0.00
PC:2d4f4     Total:897      MisBP:0   MisRate:0.00%    MPKI:0.00
PC:32470     Total:630      MisBP:0   MisRate:0.00%    MPKI:0.00
PC:2cc4a     Total:2181      MisBP:0   MisRate:0.00%    MPKI:0.00
PC:14f12     Total:70      MisBP:0   MisRate:0.00%    MPKI:0.00
PC:2dc7e     Total:477      MisBP:0   MisRate:0.00%    MPKI:0.00
PC:13af6     Total:9965      MisBP:0   MisRate:0.00%    MPKI:0.00
PC:278e0     Total:136      MisBP:0   MisRate:0.00%    MPKI:0.00
PC:13af0     Total:10279      MisBP:0   MisRate:0.00%    MPKI:0.00
PC:2d4f2     Total:907      MisBP:0   MisRate:0.00%    MPKI:0.00
PC:2cc48     Total:2181      MisBP:0   MisRate:0.00%    MPKI:0.00
PC:14f10     Total:70      MisBP:0   MisRate:0.00%    MPKI:0.00
PC:2cc44     Total:2181      MisBP:0   MisRate:0.00%    MPKI:0.00
PC:14f0c     Total:70      MisBP:0   MisRate:0.00%    MPKI:0.00
PC:3247c     Total:628      MisBP:0   MisRate:0.00%    MPKI:0.00
PC:13b00     Total:9257      MisBP:0   MisRate:0.00%    MPKI:0.00
PC:2d502     Total:894      MisBP:0   MisRate:0.00%    MPKI:0.00
PC:14f20     Total:5993      MisBP:0   MisRate:0.00%    MPKI:0.00
PC:2dc8c     Total:569      MisBP:0   MisRate:0.00%    MPKI:0.00
PC:2cc58     Total:2073      MisBP:0   MisRate:0.00%    MPKI:0.00
PC:278ee     Total:13      MisBP:0   MisRate:0.00%    MPKI:0.00
PC:13afe     Total:9951      MisBP:0   MisRate:0.00%    MPKI:0.00
PC:2d500     Total:894      MisBP:0   MisRate:0.00%    MPKI:0.00
PC:14f2e     Total:5984      MisBP:0   MisRate:0.00%    MPKI:0.00
PC:278ea     Total:13      MisBP:0   MisRate:0.00%    MPKI:0.00
PC:13afa     Total:9958      MisBP:0   MisRate:0.00%    MPKI:0.00
PC:2d4fc     Total:896      MisBP:0   MisRate:0.00%    MPKI:0.00
PC:32478     Total:628      MisBP:0   MisRate:0.00%    MPKI:0.00
PC:14f1a     Total:5996      MisBP:0   MisRate:0.00%    MPKI:0.00
PC:2cc52     Total:2181      MisBP:0   MisRate:0.00%    MPKI:0.00
PC:278e6     Total:20      MisBP:0   MisRate:0.00%    MPKI:0.00
PC:30e98     Total:11      MisBP:0   MisRate:0.00%    MPKI:0.00
PC:2d63a     Total:582      MisBP:0   MisRate:0.00%    MPKI:0.00
PC:148ce     Total:33      MisBP:0   MisRate:0.00%    MPKI:0.00
PC:2c3d0     Total:72      MisBP:0   MisRate:0.00%    MPKI:0.00
PC:2cc7a     Total:12      MisBP:0   MisRate:0.00%    MPKI:0.00
PC:2f438     Total:43888      MisBP:0   MisRate:0.00%    MPKI:0.00
PC:2d64c     Total:1      MisBP:0   MisRate:0.00%    MPKI:0.00
PC:325c8     Total:1146      MisBP:0   MisRate:0.00%    MPKI:0.00
PC:109f2     Total:264      MisBP:0   MisRate:0.00%    MPKI:0.00
PC:139f8     Total:38      MisBP:0   MisRate:0.00%    MPKI:0.00
PC:2d520     Total:950      MisBP:0   MisRate:0.00%    MPKI:0.00
PC:2d636     Total:569      MisBP:0   MisRate:0.00%    MPKI:0.00
PC:2c3cc     Total:73      MisBP:0   MisRate:0.00%    MPKI:0.00
PC:2cc76     Total:12      MisBP:0   MisRate:0.00%    MPKI:0.00
PC:2d51c     Total:950      MisBP:0   MisRate:0.00%    MPKI:0.00
PC:32498     Total:446      MisBP:0   MisRate:0.00%    MPKI:0.00
PC:2d632     Total:589      MisBP:0   MisRate:0.00%    MPKI:0.00
PC:2c3e4     Total:69      MisBP:0   MisRate:0.00%    MPKI:0.00
PC:2c3e8     Total:68      MisBP:0   MisRate:0.00%    MPKI:0.00
PC:109f8     Total:264      MisBP:0   MisRate:0.00%    MPKI:0.00
PC:30e9e     Total:11      MisBP:0   MisRate:0.00%    MPKI:0.00
PC:2d526     Total:276      MisBP:0   MisRate:0.00%    MPKI:0.00
PC:2d63c     Total:583      MisBP:0   MisRate:0.00%    MPKI:0.00
PC:148d0     Total:33      MisBP:0   MisRate:0.00%    MPKI:0.00
PC:325b8     Total:1148      MisBP:0   MisRate:0.00%    MPKI:0.00
PC:2c3d2     Total:72      MisBP:0   MisRate:0.00%    MPKI:0.00
PC:2c3c8     Total:73      MisBP:0   MisRate:0.00%    MPKI:0.00
PC:10eba     Total:4      MisBP:0   MisRate:0.00%    MPKI:0.00
PC:109f4     Total:264      MisBP:0   MisRate:0.00%    MPKI:0.00
PC:30e9a     Total:11      MisBP:0   MisRate:0.00%    MPKI:0.00
PC:2d524     Total:945      MisBP:0   MisRate:0.00%    MPKI:0.00
PC:324a0     Total:2      MisBP:0   MisRate:0.00%    MPKI:0.00
PC:26e3c     Total:116      MisBP:0   MisRate:0.00%    MPKI:0.00
PC:2ef22     Total:924      MisBP:0   MisRate:0.00%    MPKI:0.00
PC:2d512     Total:925      MisBP:0   MisRate:0.00%    MPKI:0.00
PC:325a8     Total:1148      MisBP:0   MisRate:0.00%    MPKI:0.00
PC:2c3c2     Total:73      MisBP:0   MisRate:0.00%    MPKI:0.00
PC:2cc6c     Total:1995      MisBP:0   MisRate:0.00%    MPKI:0.00
PC:2d514     Total:924      MisBP:0   MisRate:0.00%    MPKI:0.00
PC:32490     Total:612      MisBP:0   MisRate:0.00%    MPKI:0.00
PC:2d62a     Total:600      MisBP:0   MisRate:0.00%    MPKI:0.00
PC:2c3c0     Total:73      MisBP:0   MisRate:0.00%    MPKI:0.00
PC:2cc6a     Total:2073      MisBP:0   MisRate:0.00%    MPKI:0.00
PC:2d62c     Total:600      MisBP:0   MisRate:0.00%    MPKI:0.00
PC:14f30     Total:5937      MisBP:0   MisRate:0.00%    MPKI:0.00
PC:325a4     Total:1148      MisBP:0   MisRate:0.00%    MPKI:0.00
PC:2c3be     Total:74      MisBP:0   MisRate:0.00%    MPKI:0.00
PC:278fe     Total:9      MisBP:0   MisRate:0.00%    MPKI:0.00
PC:13b0e     Total:9247      MisBP:0   MisRate:0.00%    MPKI:0.00
PC:2d510     Total:925      MisBP:0   MisRate:0.00%    MPKI:0.00
PC:3248c     Total:612      MisBP:0   MisRate:0.00%    MPKI:0.00
PC:27906     Total:5      MisBP:0   MisRate:0.00%    MPKI:0.00
PC:2cc72     Total:1995      MisBP:0   MisRate:0.00%    MPKI:0.00
PC:2f430     Total:87776      MisBP:0   MisRate:0.00%    MPKI:0.00
PC:2d51a     Total:950      MisBP:0   MisRate:0.00%    MPKI:0.00
PC:14f38     Total:5932      MisBP:0   MisRate:0.00%    MPKI:0.00
PC:2d630     Total:591      MisBP:0   MisRate:0.00%    MPKI:0.00
PC:325ac     Total:1148      MisBP:0   MisRate:0.00%    MPKI:0.00
PC:2c3c6     Total:73      MisBP:0   MisRate:0.00%    MPKI:0.00
PC:2cc70     Total:1995      MisBP:0   MisRate:0.00%    MPKI:0.00
PC:2dcc0     Total:144      MisBP:0   MisRate:0.00%    MPKI:0.00
PC:2c882     Total:22798      MisBP:0   MisRate:0.00%    MPKI:0.00
PC:13b16     Total:8814      MisBP:0   MisRate:0.00%    MPKI:0.00
PC:2d518     Total:950      MisBP:0   MisRate:0.00%    MPKI:0.00
PC:27904     Total:5      MisBP:0   MisRate:0.00%    MPKI:0.00
PC:13b14     Total:9221      MisBP:0   MisRate:0.00%    MPKI:0.00
PC:2d516     Total:950      MisBP:0   MisRate:0.00%    MPKI:0.00
PC:14f34     Total:5935      MisBP:0   MisRate:0.00%    MPKI:0.00
PC:1381c     Total:2083581      MisBP:0   MisRate:0.00%    MPKI:0.00
PC:2c596     Total:6      MisBP:0   MisRate:0.00%    MPKI:0.00
PC:1382a     Total:2539953      MisBP:0   MisRate:0.00%    MPKI:0.00
PC:2c594     Total:6      MisBP:0   MisRate:0.00%    MPKI:0.00
PC:13828     Total:2540162      MisBP:0   MisRate:0.00%    MPKI:0.00
PC:2c590     Total:4032      MisBP:0   MisRate:0.00%    MPKI:0.00
PC:13824     Total:2078302      MisBP:0   MisRate:0.00%    MPKI:0.00
PC:2c58c     Total:4045      MisBP:0   MisRate:0.00%    MPKI:0.00
PC:13820     Total:2080434      MisBP:0   MisRate:0.00%    MPKI:0.00
PC:2c59a     Total:6      MisBP:0   MisRate:0.00%    MPKI:0.00
PC:2c576     Total:10668      MisBP:0   MisRate:0.00%    MPKI:0.00
PC:1380a     Total:7155415      MisBP:0   MisRate:0.00%    MPKI:0.00
PC:1104c     Total:2      MisBP:0   MisRate:0.00%    MPKI:0.00
PC:2c56e     Total:14744      MisBP:0   MisRate:0.00%    MPKI:0.00
PC:13802     Total:7907603      MisBP:0   MisRate:0.00%    MPKI:0.00
PC:11044     Total:2      MisBP:0   MisRate:0.00%    MPKI:0.00
PC:2c56a     Total:14769      MisBP:0   MisRate:0.00%    MPKI:0.00
PC:137fe     Total:7910222      MisBP:0   MisRate:0.00%    MPKI:0.00
PC:2c50e     Total:35420      MisBP:0   MisRate:0.00%    MPKI:0.00
PC:10a8e     Total:2      MisBP:0   MisRate:0.00%    MPKI:0.00
PC:2c508     Total:16260      MisBP:0   MisRate:0.00%    MPKI:0.00
PC:1379c     Total:715332      MisBP:0   MisRate:0.00%    MPKI:0.00
PC:2c526     Total:34879      MisBP:0   MisRate:0.00%    MPKI:0.00
PC:10ffc     Total:32      MisBP:0   MisRate:0.00%    MPKI:0.00
PC:137ba     Total:710866      MisBP:0   MisRate:0.00%    MPKI:0.00
PC:2c522     Total:34895      MisBP:0   MisRate:0.00%    MPKI:0.00
PC:10ff8     Total:32      MisBP:0   MisRate:0.00%    MPKI:0.00
PC:11040     Total:2      MisBP:0   MisRate:0.00%    MPKI:0.00
PC:10fe4     Total:6      MisBP:0   MisRate:0.00%    MPKI:0.00
PC:13838     Total:670315      MisBP:0   MisRate:0.00%    MPKI:0.00
PC:2c5a2     Total:6      MisBP:0   MisRate:0.00%    MPKI:0.00
PC:13836     Total:686165      MisBP:0   MisRate:0.00%    MPKI:0.00
PC:2c5a0     Total:6      MisBP:0   MisRate:0.00%    MPKI:0.00
PC:2c59c     Total:6      MisBP:0   MisRate:0.00%    MPKI:0.00
PC:13830     Total:687296      MisBP:0   MisRate:0.00%    MPKI:0.00
PC:2c612     Total:193      MisBP:0   MisRate:0.00%    MPKI:0.00
PC:2c544     Total:32150      MisBP:0   MisRate:0.00%    MPKI:0.00
PC:137d8     Total:3190904      MisBP:0   MisRate:0.00%    MPKI:0.00
PC:2c540     Total:32247      MisBP:0   MisRate:0.00%    MPKI:0.00
PC:137d4     Total:3193511      MisBP:0   MisRate:0.00%    MPKI:0.00
PC:11016     Total:8      MisBP:0   MisRate:0.00%    MPKI:0.00
PC:2c53c     Total:33421      MisBP:0   MisRate:0.00%    MPKI:0.00
PC:137d0     Total:3194327      MisBP:0   MisRate:0.00%    MPKI:0.00
PC:11012     Total:8      MisBP:0   MisRate:0.00%    MPKI:0.00
PC:1101c     Total:8      MisBP:0   MisRate:0.00%    MPKI:0.00
PC:2d87c     Total:2      MisBP:0   MisRate:0.00%    MPKI:0.00
PC:2c60e     Total:307      MisBP:0   MisRate:0.00%    MPKI:0.00
PC:138a2     Total:22659      MisBP:0   MisRate:0.00%    MPKI:0.00
PC:2d878     Total:2      MisBP:0   MisRate:0.00%    MPKI:0.00
PC:327f4     Total:1      MisBP:0   MisRate:0.00%    MPKI:0.00
PC:2c60a     Total:306      MisBP:0   MisRate:0.00%    MPKI:0.00
PC:1389e     Total:22659      MisBP:0   MisRate:0.00%    MPKI:0.00
PC:137e4     Total:2435628      MisBP:0   MisRate:0.00%    MPKI:0.00
PC:2c55c     Total:14906      MisBP:0   MisRate:0.00%    MPKI:0.00
PC:137f0     Total:6000309      MisBP:0   MisRate:0.00%    MPKI:0.00
PC:11032     Total:3      MisBP:0   MisRate:0.00%    MPKI:0.00
PC:2c558     Total:14914      MisBP:0   MisRate:0.00%    MPKI:0.00
PC:1102e     Total:3      MisBP:0   MisRate:0.00%    MPKI:0.00
PC:2c552     Total:14980      MisBP:0   MisRate:0.00%    MPKI:0.00
PC:137e6     Total:2435605      MisBP:0   MisRate:0.00%    MPKI:0.00
PC:11028     Total:8      MisBP:0   MisRate:0.00%    MPKI:0.00
PC:10aaa     Total:13      MisBP:0   MisRate:0.00%    MPKI:0.00
PC:2c54c     Total:32100      MisBP:0   MisRate:0.00%    MPKI:0.00
PC:137e0     Total:3188461      MisBP:0   MisRate:0.00%    MPKI:0.00
PC:2c54a     Total:32130      MisBP:0   MisRate:0.00%    MPKI:0.00
PC:137de     Total:3189452      MisBP:0   MisRate:0.00%    MPKI:0.00
PC:11020     Total:8      MisBP:0   MisRate:0.00%    MPKI:0.00
PC:2c546     Total:32138      MisBP:0   MisRate:0.00%    MPKI:0.00
PC:137da     Total:3190448      MisBP:0   MisRate:0.00%    MPKI:0.00
PC:2d9d8     Total:268      MisBP:0   MisRate:0.00%    MPKI:0.00
PC:2dcc6     Total:144      MisBP:0   MisRate:0.00%    MPKI:0.00
PC:14c70     Total:2      MisBP:0   MisRate:0.00%    MPKI:0.00
PC:2d9dc     Total:268      MisBP:0   MisRate:0.00%    MPKI:0.00
PC:14c6e     Total:2      MisBP:0   MisRate:0.00%    MPKI:0.00
PC:2d9da     Total:268      MisBP:0   MisRate:0.00%    MPKI:0.00
PC:12798     Total:19026      MisBP:0   MisRate:0.00%    MPKI:0.00
PC:14f56     Total:1029      MisBP:0   MisRate:0.00%    MPKI:0.00
PC:14c6c     Total:2      MisBP:0   MisRate:0.00%    MPKI:0.00
PC:14f5a     Total:164      MisBP:0   MisRate:0.00%    MPKI:0.00
PC:14c6a     Total:2      MisBP:0   MisRate:0.00%    MPKI:0.00
PC:2d9d6     Total:1      MisBP:0   MisRate:0.00%    MPKI:0.00
PC:12794     Total:19026      MisBP:0   MisRate:0.00%    MPKI:0.00
PC:14c68     Total:2      MisBP:0   MisRate:0.00%    MPKI:0.00
PC:2d9d4     Total:1      MisBP:0   MisRate:0.00%    MPKI:0.00
PC:14c66     Total:2      MisBP:0   MisRate:0.00%    MPKI:0.00
PC:2d9d2     Total:1      MisBP:0   MisRate:0.00%    MPKI:0.00
PC:12790     Total:19026      MisBP:0   MisRate:0.00%    MPKI:0.00
PC:14c76     Total:2      MisBP:0   MisRate:0.00%    MPKI:0.00
PC:2dcd4     Total:180      MisBP:0   MisRate:0.00%    MPKI:0.00
PC:14c7e     Total:2      MisBP:0   MisRate:0.00%    MPKI:0.00
PC:14c7c     Total:2      MisBP:0   MisRate:0.00%    MPKI:0.00
PC:2d9e8     Total:289      MisBP:0   MisRate:0.00%    MPKI:0.00
PC:127a4     Total:20295      MisBP:0   MisRate:0.00%    MPKI:0.00
PC:14f62     Total:164      MisBP:0   MisRate:0.00%    MPKI:0.00
PC:14c78     Total:2      MisBP:0   MisRate:0.00%    MPKI:0.00
PC:2d9e4     Total:298      MisBP:0   MisRate:0.00%    MPKI:0.00
PC:2dcba     Total:146      MisBP:0   MisRate:0.00%    MPKI:0.00
PC:127a0     Total:20305      MisBP:0   MisRate:0.00%    MPKI:0.00
PC:14f5e     Total:164      MisBP:0   MisRate:0.00%    MPKI:0.00
PC:2dcca     Total:157      MisBP:0   MisRate:0.00%    MPKI:0.00
PC:14c74     Total:2      MisBP:0   MisRate:0.00%    MPKI:0.00
PC:2d9e0     Total:268      MisBP:0   MisRate:0.00%    MPKI:0.00
PC:14c72     Total:2      MisBP:0   MisRate:0.00%    MPKI:0.00
PC:1279c     Total:20334      MisBP:0   MisRate:0.00%    MPKI:0.00
PC:2d9be     Total:237      MisBP:0   MisRate:0.00%    MPKI:0.00
PC:14f42     Total:1      MisBP:0   MisRate:0.00%    MPKI:0.00
PC:2dcae     Total:1      MisBP:0   MisRate:0.00%    MPKI:0.00
PC:14c58     Total:3      MisBP:0   MisRate:0.00%    MPKI:0.00
PC:2d9c4     Total:237      MisBP:0   MisRate:0.00%    MPKI:0.00
PC:12780     Total:5      MisBP:0   MisRate:0.00%    MPKI:0.00
PC:2dcaa     Total:1      MisBP:0   MisRate:0.00%    MPKI:0.00
PC:14c54     Total:6      MisBP:0   MisRate:0.00%    MPKI:0.00
[...]
PC:2d8fe     Total:260      MisBP:0   MisRate:0.00%    MPKI:0.00
PC:2c694     Total:8      MisBP:0   MisRate:0.00%    MPKI:0.00
PC:2d8fc     Total:286      MisBP:0   MisRate:0.00%    MPKI:0.00
PC:2d8fa     Total:286      MisBP:0   MisRate:0.00%    MPKI:0.00
PC:2c690     Total:7      MisBP:0   MisRate:0.00%    MPKI:0.00
PC:31cac     Total:57      MisBP:0   MisRate:0.00%    MPKI:0.00
PC:31ca4     Total:57      MisBP:0   MisRate:0.00%    MPKI:0.00
PC:14e7a     Total:8742      MisBP:0   MisRate:0.00%    MPKI:0.00
PC:2dbe4     Total:1      MisBP:0   MisRate:0.00%    MPKI:0.00
PC:14e7e     Total:8252      MisBP:0   MisRate:0.00%    MPKI:0.00
PC:14e9c     Total:7058      MisBP:0   MisRate:0.00%    MPKI:0.00
PC:14e98     Total:68988      MisBP:0   MisRate:0.00%    MPKI:0.00
PC:14e96     Total:73122      MisBP:0   MisRate:0.00%    MPKI:0.00
PC:14e92     Total:73603      MisBP:0   MisRate:0.00%    MPKI:0.00
PC:2dbfc     Total:1      MisBP:0   MisRate:0.00%    MPKI:0.00
PC:14e90     Total:73619      MisBP:0   MisRate:0.00%    MPKI:0.00
PC:2dbf8     Total:1      MisBP:0   MisRate:0.00%    MPKI:0.00
PC:14e8c     Total:147459      MisBP:0   MisRate:0.00%    MPKI:0.00
PC:2dbf4     Total:1      MisBP:0   MisRate:0.00%    MPKI:0.00
PC:14e88     Total:67360      MisBP:0   MisRate:0.00%    MPKI:0.00
PC:14e86     Total:8251      MisBP:0   MisRate:0.00%    MPKI:0.00
PC:2dbee     Total:1      MisBP:0   MisRate:0.00%    MPKI:0.00
PC:14e82     Total:8252      MisBP:0   MisRate:0.00%    MPKI:0.00
PC:2dbea     Total:1      MisBP:0   MisRate:0.00%    MPKI:0.00
PC:64f88     Total:25      MisBP:0   MisRate:0.00%    MPKI:0.00
PC:31cf8     Total:14      MisBP:0   MisRate:0.00%    MPKI:0.00
PC:31cf4     Total:7      MisBP:0   MisRate:0.00%    MPKI:0.00
PC:31cf0     Total:7      MisBP:0   MisRate:0.00%    MPKI:0.00
PC:2cd70     Total:6      MisBP:0   MisRate:0.00%    MPKI:0.00
PC:2cd6c     Total:6      MisBP:0   MisRate:0.00%    MPKI:0.00
PC:31ce8     Total:104573      MisBP:0   MisRate:0.00%    MPKI:0.00
PC:2cd68     Total:6      MisBP:0   MisRate:0.00%    MPKI:0.00
PC:31ce4     Total:34613      MisBP:0   MisRate:0.00%    MPKI:0.00
PC:2cd64     Total:6      MisBP:0   MisRate:0.00%    MPKI:0.00
PC:31ce0     Total:103843      MisBP:0   MisRate:0.00%    MPKI:0.00
PC:2cd60     Total:6      MisBP:0   MisRate:0.00%    MPKI:0.00
PC:31cdc     Total:34828      MisBP:0   MisRate:0.00%    MPKI:0.00
PC:2cd5c     Total:6      MisBP:0   MisRate:0.00%    MPKI:0.00
PC:31cd8     Total:104536      MisBP:0   MisRate:0.00%    MPKI:0.00
PC:2c3e0     Total:69      MisBP:0   MisRate:0.00%    MPKI:0.00
PC:13bce     Total:12      MisBP:0   MisRate:0.00%    MPKI:0.00
PC:10eb6     Total:4      MisBP:0   MisRate:0.00%    MPKI:0.00
PC:2c98c     Total:2322      MisBP:0   MisRate:0.00%    MPKI:0.00
PC:2c990     Total:2316      MisBP:0   MisRate:0.00%    MPKI:0.00
PC:2c994     Total:2316      MisBP:0   MisRate:0.00%    MPKI:0.00
PC:64fe2     Total:2      MisBP:0   MisRate:0.00%    MPKI:0.00
PC:26e54     Total:30      MisBP:0   MisRate:0.00%    MPKI:0.00
PC:340d2     Total:12      MisBP:0   MisRate:0.00%    MPKI:0.00
PC:2c99c     Total:42      MisBP:0   MisRate:0.00%    MPKI:0.00
PC:157c4     Total:4      MisBP:0   MisRate:0.00%    MPKI:0.00
PC:340d6     Total:12      MisBP:0   MisRate:0.00%    MPKI:0.00
PC:64fe8     Total:2      MisBP:0   MisRate:0.00%    MPKI:0.00
PC:2c99e     Total:42      MisBP:0   MisRate:0.00%    MPKI:0.00
PC:13c32     Total:1073      MisBP:0   MisRate:0.00%    MPKI:0.00
PC:2c9a2     Total:42      MisBP:0   MisRate:0.00%    MPKI:0.00
PC:340dc     Total:11      MisBP:0   MisRate:0.00%    MPKI:0.00
PC:13c36     Total:13      MisBP:0   MisRate:0.00%    MPKI:0.00
PC:64fee     Total:2      MisBP:0   MisRate:0.00%    MPKI:0.00
PC:2c958     Total:39202      MisBP:0   MisRate:0.00%    MPKI:0.00
PC:13bc4     Total:6      MisBP:0   MisRate:0.00%    MPKI:0.00
PC:4a9da     Total:2      MisBP:0   MisRate:0.00%    MPKI:0.00
PC:64fa8     Total:4      MisBP:0   MisRate:0.00%    MPKI:0.00
PC:2c95e     Total:39190      MisBP:0   MisRate:0.00%    MPKI:0.00
PC:64f02     Total:195      MisBP:0   MisRate:0.00%    MPKI:0.00
PC:64f0a     Total:195      MisBP:0   MisRate:0.00%    MPKI:0.00
PC:64f1c     Total:186      MisBP:0   MisRate:0.00%    MPKI:0.00
PC:2f4b0     Total:12      MisBP:0   MisRate:0.00%    MPKI:0.00
PC:2da96     Total:15      MisBP:0   MisRate:0.00%    MPKI:0.00
PC:2c930     Total:20673      MisBP:0   MisRate:0.00%    MPKI:0.00
PC:13c3e     Total:13      MisBP:0   MisRate:0.00%    MPKI:0.00
PC:13be6     Total:8      MisBP:0   MisRate:0.00%    MPKI:0.00
PC:64f7e     Total:36      MisBP:0   MisRate:0.00%    MPKI:0.00
PC:2c934     Total:20672      MisBP:0   MisRate:0.00%    MPKI:0.00
PC:14d2a     Total:629552      MisBP:0   MisRate:0.00%    MPKI:0.00
PC:2c95c     Total:39190      MisBP:0   MisRate:0.00%    MPKI:0.00
PC:13bc8     Total:12      MisBP:0   MisRate:0.00%    MPKI:0.00
PC:64f84     Total:25      MisBP:0   MisRate:0.00%    MPKI:0.00
PC:15914     Total:20297      MisBP:0   MisRate:0.00%    MPKI:0.00
PC:340de     Total:11      MisBP:0   MisRate:0.00%    MPKI:0.00
PC:2c9a6     Total:42      MisBP:0   MisRate:0.00%    MPKI:0.00
PC:340e4     Total:11      MisBP:0   MisRate:0.00%    MPKI:0.00
PC:14d24     Total:629880      MisBP:0   MisRate:0.00%    MPKI:0.00
PC:14d22     Total:630184      MisBP:0   MisRate:0.00%    MPKI:0.00
PC:13c38     Total:13      MisBP:0   MisRate:0.00%    MPKI:0.00
PC:26e66     Total:12      MisBP:0   MisRate:0.00%    MPKI:0.00
PC:2c956     Total:39202      MisBP:0   MisRate:0.00%    MPKI:0.00
PC:340e0     Total:11      MisBP:0   MisRate:0.00%    MPKI:0.00
PC:64fa2     Total:4      MisBP:0   MisRate:0.00%    MPKI:0.00
PC:2c9aa     Total:42      MisBP:0   MisRate:0.00%    MPKI:0.00
PC:13c3a     Total:13      MisBP:0   MisRate:0.00%    MPKI:0.00
PC:2da8e     Total:15      MisBP:0   MisRate:0.00%    MPKI:0.00
PC:2c9a4     Total:42      MisBP:0   MisRate:0.00%    MPKI:0.00
PC:26e60     Total:12      MisBP:0   MisRate:0.00%    MPKI:0.00
PC:64ff4     Total:2      MisBP:0   MisRate:0.00%    MPKI:0.00
PC:338ee     Total:2      MisBP:1   MisRate:50.00%    MPKI:0.00
PC:2de3a     Total:1      MisBP:1   MisRate:100.00%    MPKI:0.00
PC:2d676     Total:4      MisBP:1   MisRate:25.00%    MPKI:0.00
PC:2de44     Total:2      MisBP:1   MisRate:50.00%    MPKI:0.00
PC:2c560     Total:14889      MisBP:1   MisRate:0.01%    MPKI:0.00
PC:2dec2     Total:1      MisBP:1   MisRate:100.00%    MPKI:0.00
PC:2e16e     Total:16      MisBP:1   MisRate:6.25%    MPKI:0.00
PC:2ded2     Total:2      MisBP:1   MisRate:50.00%    MPKI:0.00
PC:2f46e     Total:81      MisBP:1   MisRate:1.23%    MPKI:0.00
PC:2ef8a     Total:958      MisBP:1   MisRate:0.10%    MPKI:0.00
PC:5311a     Total:9      MisBP:1   MisRate:11.11%    MPKI:0.00
PC:2cd3e     Total:1161      MisBP:1   MisRate:0.09%    MPKI:0.00
PC:2dafe     Total:1      MisBP:1   MisRate:100.00%    MPKI:0.00
PC:2c962     Total:39190      MisBP:1   MisRate:0.00%    MPKI:0.00
PC:3396e     Total:18      MisBP:1   MisRate:5.56%    MPKI:0.00
PC:2e254     Total:3      MisBP:1   MisRate:33.33%    MPKI:0.00
PC:2de8a     Total:2      MisBP:1   MisRate:50.00%    MPKI:0.00
PC:2c0f4     Total:10      MisBP:1   MisRate:10.00%    MPKI:0.00
PC:340fc     Total:9      MisBP:1   MisRate:11.11%    MPKI:0.00
PC:2de64     Total:3      MisBP:1   MisRate:33.33%    MPKI:0.00
PC:2e236     Total:8      MisBP:1   MisRate:12.50%    MPKI:0.00
PC:2cd9c     Total:39174      MisBP:1   MisRate:0.00%    MPKI:0.00
PC:2daac     Total:19      MisBP:1   MisRate:5.26%    MPKI:0.00
PC:2d3d8     Total:5      MisBP:1   MisRate:20.00%    MPKI:0.00
PC:2d84a     Total:18      MisBP:1   MisRate:5.56%    MPKI:0.00
PC:2e1f6     Total:1      MisBP:1   MisRate:100.00%    MPKI:0.00
PC:33b5e     Total:2      MisBP:1   MisRate:50.00%    MPKI:0.00
PC:10b3e     Total:9      MisBP:2   MisRate:22.22%    MPKI:0.00
PC:2c60c     Total:306      MisBP:2   MisRate:0.65%    MPKI:0.00
PC:3249c     Total:446      MisBP:2   MisRate:0.45%    MPKI:0.00
PC:2d9e2     Total:268      MisBP:2   MisRate:0.75%    MPKI:0.00
PC:2d5b8     Total:624      MisBP:2   MisRate:0.32%    MPKI:0.00
PC:2caaa     Total:28      MisBP:2   MisRate:7.14%    MPKI:0.00
PC:32444     Total:401      MisBP:2   MisRate:0.50%    MPKI:0.00
PC:324b0     Total:2      MisBP:2   MisRate:100.00%    MPKI:0.00
PC:10b30     Total:8      MisBP:2   MisRate:25.00%    MPKI:0.00
PC:2c120     Total:22      MisBP:2   MisRate:9.09%    MPKI:0.00
PC:2c5a4     Total:6      MisBP:2   MisRate:33.33%    MPKI:0.00
PC:2c0ce     Total:11      MisBP:2   MisRate:18.18%    MPKI:0.00
PC:34194     Total:12      MisBP:2   MisRate:16.67%    MPKI:0.00
PC:2d3c6     Total:809      MisBP:2   MisRate:0.25%    MPKI:0.00
PC:2df6e     Total:2      MisBP:2   MisRate:100.00%    MPKI:0.00
PC:109fe     Total:264      MisBP:2   MisRate:0.76%    MPKI:0.00
PC:13d36     Total:288      MisBP:2   MisRate:0.69%    MPKI:0.00
PC:2dbb8     Total:6      MisBP:2   MisRate:33.33%    MPKI:0.00
PC:13ab6     Total:9824      MisBP:2   MisRate:0.02%    MPKI:0.00
PC:2d66e     Total:60      MisBP:3   MisRate:5.00%    MPKI:0.00
PC:2c0ea     Total:10      MisBP:3   MisRate:30.00%    MPKI:0.00
PC:13b40     Total:4208      MisBP:3   MisRate:0.07%    MPKI:0.00
PC:340f0     Total:10      MisBP:3   MisRate:30.00%    MPKI:0.00
PC:2c604     Total:306      MisBP:3   MisRate:0.98%    MPKI:0.00
PC:14d9a     Total:136277      MisBP:3   MisRate:0.00%    MPKI:0.00
PC:10efc     Total:6      MisBP:3   MisRate:50.00%    MPKI:0.00
PC:127b0     Total:19027      MisBP:3   MisRate:0.02%    MPKI:0.00
PC:10a2e     Total:167      MisBP:4   MisRate:2.40%    MPKI:0.00
PC:14efc     Total:9665      MisBP:4   MisRate:0.04%    MPKI:0.00
PC:2d8e8     Total:152      MisBP:4   MisRate:2.63%    MPKI:0.00
PC:2c108     Total:9      MisBP:4   MisRate:44.44%    MPKI:0.00
PC:2c580     Total:33902      MisBP:4   MisRate:0.01%    MPKI:0.00
PC:31cec     Total:34856      MisBP:4   MisRate:0.01%    MPKI:0.00
PC:14f74     Total:12344      MisBP:4   MisRate:0.03%    MPKI:0.00
PC:2d840     Total:18      MisBP:4   MisRate:22.22%    MPKI:0.00
PC:2cabc     Total:32      MisBP:5   MisRate:15.62%    MPKI:0.00
PC:2c11c     Total:16      MisBP:5   MisRate:31.25%    MPKI:0.00
PC:2da8a     Total:15      MisBP:5   MisRate:33.33%    MPKI:0.00
PC:2d492     Total:559      MisBP:5   MisRate:0.89%    MPKI:0.00
PC:2cd54     Total:1161      MisBP:5   MisRate:0.43%    MPKI:0.00
PC:26e52     Total:33      MisBP:5   MisRate:15.15%    MPKI:0.00
PC:2d9a8     Total:179      MisBP:5   MisRate:2.79%    MPKI:0.00
PC:2ca2a     Total:88      MisBP:6   MisRate:6.82%    MPKI:0.00
PC:340ee     Total:11      MisBP:6   MisRate:54.55%    MPKI:0.00
PC:26e46     Total:27      MisBP:6   MisRate:22.22%    MPKI:0.00
PC:2c5b2     Total:135      MisBP:7   MisRate:5.19%    MPKI:0.00
PC:2d724     Total:274      MisBP:7   MisRate:2.55%    MPKI:0.00
PC:14e1a     Total:1340      MisBP:7   MisRate:0.52%    MPKI:0.00
PC:13b6e     Total:23      MisBP:7   MisRate:30.43%    MPKI:0.00
PC:2d4ee     Total:694      MisBP:7   MisRate:1.01%    MPKI:0.00
PC:10158     Total:1513      MisBP:7   MisRate:0.46%    MPKI:0.00
PC:2d47e     Total:76      MisBP:7   MisRate:9.21%    MPKI:0.00
PC:2d8e2     Total:181      MisBP:7   MisRate:3.87%    MPKI:0.00
PC:2d6dc     Total:240      MisBP:7   MisRate:2.92%    MPKI:0.00
PC:2d60a     Total:177      MisBP:7   MisRate:3.95%    MPKI:0.00
PC:2c4e6     Total:126      MisBP:7   MisRate:5.56%    MPKI:0.00
PC:2c5ea     Total:185      MisBP:7   MisRate:3.78%    MPKI:0.00
PC:2cfd0     Total:20      MisBP:8   MisRate:40.00%    MPKI:0.00
PC:13ba2     Total:1832      MisBP:8   MisRate:0.44%    MPKI:0.00
PC:2c5f2     Total:184      MisBP:9   MisRate:4.89%    MPKI:0.00
PC:2d784     Total:41      MisBP:9   MisRate:21.95%    MPKI:0.00
PC:2cdf2     Total:124      MisBP:9   MisRate:7.26%    MPKI:0.00
PC:2c566     Total:14815      MisBP:9   MisRate:0.06%    MPKI:0.00
PC:14d4c     Total:27      MisBP:9   MisRate:33.33%    MPKI:0.00
PC:2da5c     Total:68      MisBP:9   MisRate:13.24%    MPKI:0.00
PC:137c0     Total:2406594      MisBP:9   MisRate:0.00%    MPKI:0.00
PC:2d9ee     Total:289      MisBP:11   MisRate:3.81%    MPKI:0.00
PC:2ca6c     Total:194      MisBP:11   MisRate:5.67%    MPKI:0.00
PC:13c34     Total:1073      MisBP:12   MisRate:1.12%    MPKI:0.00
PC:10a24     Total:179      MisBP:12   MisRate:6.70%    MPKI:0.00
PC:1390a     Total:1110      MisBP:13   MisRate:1.17%    MPKI:0.00
PC:2d618     Total:562      MisBP:14   MisRate:2.49%    MPKI:0.00
PC:14d44     Total:4542061      MisBP:14   MisRate:0.00%    MPKI:0.00
PC:2caa2     Total:1144      MisBP:15   MisRate:1.31%    MPKI:0.00
PC:2d9f8     Total:265      MisBP:16   MisRate:6.04%    MPKI:0.00
PC:2ca0e     Total:216      MisBP:16   MisRate:7.41%    MPKI:0.00
PC:2d4d0     Total:158      MisBP:17   MisRate:10.76%    MPKI:0.00
PC:2d8f8     Total:214      MisBP:18   MisRate:8.41%    MPKI:0.00
PC:32410     Total:469      MisBP:18   MisRate:3.84%    MPKI:0.00
PC:2c538     Total:33942      MisBP:18   MisRate:0.05%    MPKI:0.00
PC:2d77c     Total:639      MisBP:18   MisRate:2.82%    MPKI:0.00
PC:2d766     Total:1639      MisBP:18   MisRate:1.10%    MPKI:0.00
PC:2d586     Total:1197      MisBP:18   MisRate:1.50%    MPKI:0.00
PC:13b5a     Total:4014      MisBP:18   MisRate:0.45%    MPKI:0.00
PC:10ae0     Total:1134      MisBP:18   MisRate:1.59%    MPKI:0.00
PC:2d5be     Total:622      MisBP:19   MisRate:3.05%    MPKI:0.00
PC:2c998     Total:2316      MisBP:19   MisRate:0.82%    MPKI:0.00
PC:2d44e     Total:107      MisBP:20   MisRate:18.69%    MPKI:0.00
PC:2da2e     Total:259      MisBP:20   MisRate:7.72%    MPKI:0.00
PC:2d4ac     Total:806      MisBP:21   MisRate:2.61%    MPKI:0.00
PC:13c4a     Total:67      MisBP:21   MisRate:31.34%    MPKI:0.00
PC:2cd36     Total:1128      MisBP:22   MisRate:1.95%    MPKI:0.00
PC:2d6ec     Total:196      MisBP:23   MisRate:11.73%    MPKI:0.00
PC:10a56     Total:345      MisBP:25   MisRate:7.25%    MPKI:0.00
PC:2d710     Total:1133      MisBP:25   MisRate:2.21%    MPKI:0.00
PC:2ca38     Total:1144      MisBP:26   MisRate:2.27%    MPKI:0.00
PC:2f43e     Total:43842      MisBP:27   MisRate:0.06%    MPKI:0.00
PC:10a4c     Total:2425      MisBP:31   MisRate:1.28%    MPKI:0.00
PC:13ad2     Total:43235      MisBP:35   MisRate:0.08%    MPKI:0.00
PC:2ca12     Total:187      MisBP:36   MisRate:19.25%    MPKI:0.00
PC:14e12     Total:9319      MisBP:38   MisRate:0.41%    MPKI:0.00
PC:2d4c4     Total:750      MisBP:38   MisRate:5.07%    MPKI:0.00
PC:2d57e     Total:1228      MisBP:39   MisRate:3.18%    MPKI:0.00
PC:2dc8e     Total:568      MisBP:42   MisRate:7.39%    MPKI:0.00
PC:2d7d0     Total:445      MisBP:45   MisRate:10.11%    MPKI:0.00
PC:2da3e     Total:293      MisBP:46   MisRate:15.70%    MPKI:0.00
PC:14cfa     Total:976111      MisBP:46   MisRate:0.00%    MPKI:0.00
PC:2d758     Total:1254      MisBP:46   MisRate:3.67%    MPKI:0.00
PC:2d58e     Total:1195      MisBP:49   MisRate:4.10%    MPKI:0.00
PC:14f6c     Total:210      MisBP:53   MisRate:25.24%    MPKI:0.00
PC:1399e     Total:31004      MisBP:55   MisRate:0.18%    MPKI:0.00
PC:3f1d6     Total:920      MisBP:55   MisRate:5.98%    MPKI:0.00
PC:14df0     Total:9376      MisBP:56   MisRate:0.60%    MPKI:0.00
PC:2c5f6     Total:180      MisBP:57   MisRate:31.67%    MPKI:0.00
PC:2c610     Total:285      MisBP:63   MisRate:22.11%    MPKI:0.00
PC:2f44a     Total:41713      MisBP:63   MisRate:0.15%    MPKI:0.00
PC:2cf4a     Total:886      MisBP:65   MisRate:7.34%    MPKI:0.00
PC:2cdd4     Total:229      MisBP:77   MisRate:33.62%    MPKI:0.00
PC:2c9ba     Total:1595      MisBP:79   MisRate:4.95%    MPKI:0.00
PC:14dfc     Total:18593      MisBP:82   MisRate:0.44%    MPKI:0.00
PC:2d5f8     Total:413      MisBP:85   MisRate:20.58%    MPKI:0.00
PC:32694     Total:1109      MisBP:89   MisRate:8.03%    MPKI:0.00
PC:138a8     Total:22507      MisBP:98   MisRate:0.44%    MPKI:0.00
PC:32388     Total:499      MisBP:100   MisRate:20.04%    MPKI:0.00
PC:14eee     Total:10113      MisBP:100   MisRate:0.99%    MPKI:0.00
PC:32394     Total:115      MisBP:100   MisRate:86.96%    MPKI:0.00
PC:2d628     Total:1861      MisBP:109   MisRate:5.86%    MPKI:0.00
PC:14e94     Total:73518      MisBP:118   MisRate:0.16%    MPKI:0.00
PC:2c4fa     Total:30126      MisBP:120   MisRate:0.40%    MPKI:0.00
PC:32494     Total:612      MisBP:120   MisRate:19.61%    MPKI:0.00
PC:12d0c     Total:1074172      MisBP:121   MisRate:0.01%    MPKI:0.00
PC:2d5a8     Total:925      MisBP:123   MisRate:13.30%    MPKI:0.00
PC:3f1a4     Total:232      MisBP:125   MisRate:53.88%    MPKI:0.00
PC:2ca44     Total:1119      MisBP:128   MisRate:11.44%    MPKI:0.00
PC:2d71e     Total:1142      MisBP:134   MisRate:11.73%    MPKI:0.00
PC:2c9e8     Total:1011      MisBP:143   MisRate:14.14%    MPKI:0.00
PC:2c578     Total:10648      MisBP:168   MisRate:1.58%    MPKI:0.00
PC:2d596     Total:919      MisBP:189   MisRate:20.57%    MPKI:0.00
PC:1389a     Total:31037      MisBP:204   MisRate:0.66%    MPKI:0.00
PC:2c33a     Total:461      MisBP:207   MisRate:44.90%    MPKI:0.00
PC:2d76c     Total:2268      MisBP:209   MisRate:9.22%    MPKI:0.00
PC:2c33e     Total:399      MisBP:216   MisRate:54.14%    MPKI:0.00
PC:2d7ca     Total:4213      MisBP:268   MisRate:6.36%    MPKI:0.00
PC:2c8ba     Total:22726      MisBP:298   MisRate:1.31%    MPKI:0.00
PC:2d560     Total:2219      MisBP:305   MisRate:13.74%    MPKI:0.00
PC:14ed8     Total:1385      MisBP:326   MisRate:23.54%    MPKI:0.00
PC:136f4     Total:2684460      MisBP:472   MisRate:0.02%    MPKI:0.00
PC:2c50c     Total:16250      MisBP:482   MisRate:2.97%    MPKI:0.00
PC:13834     Total:687209      MisBP:498   MisRate:0.07%    MPKI:0.00
PC:2c4f4     Total:30649      MisBP:675   MisRate:2.20%    MPKI:0.00
PC:13b30     Total:11713      MisBP:697   MisRate:5.95%    MPKI:0.00
PC:13854     Total:638705      MisBP:930   MisRate:0.15%    MPKI:0.00
PC:2c572     Total:14738      MisBP:940   MisRate:6.38%    MPKI:0.00
PC:14e9e     Total:7058      MisBP:993   MisRate:14.07%    MPKI:0.00
PC:13b22     Total:8793      MisBP:1386   MisRate:15.76%    MPKI:0.00
PC:14f86     Total:2509      MisBP:2156   MisRate:85.93%    MPKI:0.01
PC:2c588     Total:33762      MisBP:2166   MisRate:6.42%    MPKI:0.01
PC:2c506     Total:28963      MisBP:2576   MisRate:8.89%    MPKI:0.01
PC:2c550     Total:32092      MisBP:2632   MisRate:8.20%    MPKI:0.01
PC:14eda     Total:10129      MisBP:2665   MisRate:26.31%    MPKI:0.01
PC:13adc     Total:32375      MisBP:2774   MisRate:8.57%    MPKI:0.01
PC:13ad8     Total:41681      MisBP:4188   MisRate:10.05%    MPKI:0.01
PC:14e9a     Total:68974      MisBP:5368   MisRate:7.78%    MPKI:0.02
PC:13acc     Total:34085      MisBP:5373   MisRate:15.76%    MPKI:0.02
PC:14e00     Total:18252      MisBP:6037   MisRate:33.08%    MPKI:0.02
PC:14e8a     Total:67348      MisBP:8156   MisRate:12.11%    MPKI:0.03
PC:2c93a     Total:20672      MisBP:18549   MisRate:89.73%    MPKI:0.06
PC:138d2     Total:2684584      MisBP:20055   MisRate:0.75%    MPKI:0.06
PC:14d96     Total:988041      MisBP:22677   MisRate:2.30%    MPKI:0.07
PC:1382e     Total:2539711      MisBP:27276   MisRate:1.07%    MPKI:0.09
PC:13826     Total:2025986      MisBP:270609   MisRate:13.36%    MPKI:0.87
PC:1376c     Total:2449137      MisBP:384848   MisRate:15.71%    MPKI:1.24
PC:13808     Total:7893100      MisBP:438096   MisRate:5.55%    MPKI:1.41
PC:14d04     Total:4146462      MisBP:487203   MisRate:11.75%    MPKI:1.57
PC:13818     Total:4434176      MisBP:625447   MisRate:14.11%    MPKI:2.02
PC:14d34     Total:4495209      MisBP:775069   MisRate:17.24%    MPKI:2.50
PC:137f2     Total:5999741      MisBP:861206   MisRate:14.35%    MPKI:2.78
PC:13812     Total:7139140      MisBP:896049   MisRate:12.55%    MPKI:2.89
Totfetch:586779721  TotInsts:310000004  TotMis : inf%   MPKI : 15.76
=============finish sim!!!!!!=============
Done running SimPoint!
