
---------- Begin Simulation Statistics ----------
simSeconds                                   0.015669                       # Number of seconds simulated (Second)
simTicks                                  15668807000                       # Number of ticks simulated (Tick)
finalTick                                118764968375000                       # Number of ticks from beginning of simulation (restored from checkpoints and never reset) (Tick)
simFreq                                  1000000000000                       # The number of ticks per simulated second ((Tick/Second))
hostSeconds                                     64.06                       # Real time elapsed on the host (Second)
hostTickRate                                244593942                       # The number of ticks simulated per host second (ticks/s) ((Tick/Second))
hostMemory                                   16931376                       # Number of bytes of host memory used (Byte)
simInsts                                     10000011                       # Number of instructions simulated (Count)
simOps                                       10307295                       # Number of ops (including micro ops) simulated (Count)
hostInstRate                                   156102                       # Simulator instruction rate (inst/s) ((Count/Second))
hostOpRate                                     160899                       # Simulator op (including micro ops) rate (op/s) ((Count/Second))
system.clk_domain.clock                          1000                       # Clock period in ticks (Tick)
system.cpu.numCycles                               10                       # Number of cpu cycles simulated (Cycle)
system.cpu.numWorkItemsStarted                      0                       # Number of work items this cpu started (Count)
system.cpu.numWorkItemsCompleted                    0                       # Number of work items this cpu completed (Count)
system.cpu.dcache.demandHits::cpu.data              1                       # number of demand (read+write) hits (Count)
system.cpu.dcache.demandHits::switch_cpus.data      6427653                       # number of demand (read+write) hits (Count)
system.cpu.dcache.demandHits::total           6427654                       # number of demand (read+write) hits (Count)
system.cpu.dcache.overallHits::cpu.data             1                       # number of overall hits (Count)
system.cpu.dcache.overallHits::switch_cpus.data      6427653                       # number of overall hits (Count)
system.cpu.dcache.overallHits::total          6427654                       # number of overall hits (Count)
system.cpu.dcache.demandMisses::cpu.data            4                       # number of demand (read+write) misses (Count)
system.cpu.dcache.demandMisses::switch_cpus.data       844853                       # number of demand (read+write) misses (Count)
system.cpu.dcache.demandMisses::total          844857                       # number of demand (read+write) misses (Count)
system.cpu.dcache.overallMisses::cpu.data            4                       # number of overall misses (Count)
system.cpu.dcache.overallMisses::switch_cpus.data       844853                       # number of overall misses (Count)
system.cpu.dcache.overallMisses::total         844857                       # number of overall misses (Count)
system.cpu.dcache.demandMissLatency::switch_cpus.data  46911574748                       # number of demand (read+write) miss ticks (Tick)
system.cpu.dcache.demandMissLatency::total  46911574748                       # number of demand (read+write) miss ticks (Tick)
system.cpu.dcache.overallMissLatency::switch_cpus.data  46911574748                       # number of overall miss ticks (Tick)
system.cpu.dcache.overallMissLatency::total  46911574748                       # number of overall miss ticks (Tick)
system.cpu.dcache.demandAccesses::cpu.data            5                       # number of demand (read+write) accesses (Count)
system.cpu.dcache.demandAccesses::switch_cpus.data      7272506                       # number of demand (read+write) accesses (Count)
system.cpu.dcache.demandAccesses::total       7272511                       # number of demand (read+write) accesses (Count)
system.cpu.dcache.overallAccesses::cpu.data            5                       # number of overall (read+write) accesses (Count)
system.cpu.dcache.overallAccesses::switch_cpus.data      7272506                       # number of overall (read+write) accesses (Count)
system.cpu.dcache.overallAccesses::total      7272511                       # number of overall (read+write) accesses (Count)
system.cpu.dcache.demandMissRate::cpu.data     0.800000                       # miss rate for demand accesses (Ratio)
system.cpu.dcache.demandMissRate::switch_cpus.data     0.116171                       # miss rate for demand accesses (Ratio)
system.cpu.dcache.demandMissRate::total      0.116171                       # miss rate for demand accesses (Ratio)
system.cpu.dcache.overallMissRate::cpu.data     0.800000                       # miss rate for overall accesses (Ratio)
system.cpu.dcache.overallMissRate::switch_cpus.data     0.116171                       # miss rate for overall accesses (Ratio)
system.cpu.dcache.overallMissRate::total     0.116171                       # miss rate for overall accesses (Ratio)
system.cpu.dcache.demandAvgMissLatency::switch_cpus.data 55526.316114                       # average overall miss latency in ticks ((Tick/Count))
system.cpu.dcache.demandAvgMissLatency::total 55526.053223                       # average overall miss latency in ticks ((Tick/Count))
system.cpu.dcache.overallAvgMissLatency::switch_cpus.data 55526.316114                       # average overall miss latency ((Tick/Count))
system.cpu.dcache.overallAvgMissLatency::total 55526.053223                       # average overall miss latency ((Tick/Count))
system.cpu.dcache.blockedCycles::no_mshrs      3303728                       # number of cycles access was blocked (Cycle)
system.cpu.dcache.blockedCycles::no_targets           79                       # number of cycles access was blocked (Cycle)
system.cpu.dcache.blockedCauses::no_mshrs       269407                       # number of times access was blocked (Count)
system.cpu.dcache.blockedCauses::no_targets            1                       # number of times access was blocked (Count)
system.cpu.dcache.avgBlocked::no_mshrs      12.262963                       # average number of cycles each access was blocked ((Cycle/Count))
system.cpu.dcache.avgBlocked::no_targets           79                       # average number of cycles each access was blocked ((Cycle/Count))
system.cpu.dcache.writebacks::writebacks       406314                       # number of writebacks (Count)
system.cpu.dcache.writebacks::total            406314                       # number of writebacks (Count)
system.cpu.dcache.demandMshrHits::switch_cpus.data       340178                       # number of demand (read+write) MSHR hits (Count)
system.cpu.dcache.demandMshrHits::total        340178                       # number of demand (read+write) MSHR hits (Count)
system.cpu.dcache.overallMshrHits::switch_cpus.data       340178                       # number of overall MSHR hits (Count)
system.cpu.dcache.overallMshrHits::total       340178                       # number of overall MSHR hits (Count)
system.cpu.dcache.demandMshrMisses::switch_cpus.data       504675                       # number of demand (read+write) MSHR misses (Count)
system.cpu.dcache.demandMshrMisses::total       504675                       # number of demand (read+write) MSHR misses (Count)
system.cpu.dcache.overallMshrMisses::cpu.dcache.prefetcher         3379                       # number of overall MSHR misses (Count)
system.cpu.dcache.overallMshrMisses::switch_cpus.data       504675                       # number of overall MSHR misses (Count)
system.cpu.dcache.overallMshrMisses::total       508054                       # number of overall MSHR misses (Count)
system.cpu.dcache.demandMshrMissLatency::switch_cpus.data  26109553931                       # number of demand (read+write) MSHR miss ticks (Tick)
system.cpu.dcache.demandMshrMissLatency::total  26109553931                       # number of demand (read+write) MSHR miss ticks (Tick)
system.cpu.dcache.overallMshrMissLatency::cpu.dcache.prefetcher    349964764                       # number of overall MSHR miss ticks (Tick)
system.cpu.dcache.overallMshrMissLatency::switch_cpus.data  26109553931                       # number of overall MSHR miss ticks (Tick)
system.cpu.dcache.overallMshrMissLatency::total  26459518695                       # number of overall MSHR miss ticks (Tick)
system.cpu.dcache.demandMshrMissRate::switch_cpus.data     0.069395                       # mshr miss ratio for demand accesses (Ratio)
system.cpu.dcache.demandMshrMissRate::total     0.069395                       # mshr miss ratio for demand accesses (Ratio)
system.cpu.dcache.overallMshrMissRate::cpu.dcache.prefetcher          inf                       # mshr miss ratio for overall accesses (Ratio)
system.cpu.dcache.overallMshrMissRate::switch_cpus.data     0.069395                       # mshr miss ratio for overall accesses (Ratio)
system.cpu.dcache.overallMshrMissRate::total     0.069860                       # mshr miss ratio for overall accesses (Ratio)
system.cpu.dcache.demandAvgMshrMissLatency::switch_cpus.data 51735.382040                       # average overall mshr miss latency ((Tick/Count))
system.cpu.dcache.demandAvgMshrMissLatency::total 51735.382040                       # average overall mshr miss latency ((Tick/Count))
system.cpu.dcache.overallAvgMshrMissLatency::cpu.dcache.prefetcher 103570.513170                       # average overall mshr miss latency ((Tick/Count))
system.cpu.dcache.overallAvgMshrMissLatency::switch_cpus.data 51735.382040                       # average overall mshr miss latency ((Tick/Count))
system.cpu.dcache.overallAvgMshrMissLatency::total 52080.130646                       # average overall mshr miss latency ((Tick/Count))
system.cpu.dcache.replacements                 507557                       # number of replacements (Count)
system.cpu.dcache.HardPFReq.mshrMisses::cpu.dcache.prefetcher         3379                       # number of HardPFReq MSHR misses (Count)
system.cpu.dcache.HardPFReq.mshrMisses::total         3379                       # number of HardPFReq MSHR misses (Count)
system.cpu.dcache.HardPFReq.mshrMissLatency::cpu.dcache.prefetcher    349964764                       # number of HardPFReq MSHR miss ticks (Tick)
system.cpu.dcache.HardPFReq.mshrMissLatency::total    349964764                       # number of HardPFReq MSHR miss ticks (Tick)
system.cpu.dcache.HardPFReq.mshrMissRate::cpu.dcache.prefetcher          inf                       # mshr miss rate for HardPFReq accesses (Ratio)
system.cpu.dcache.HardPFReq.mshrMissRate::total          inf                       # mshr miss rate for HardPFReq accesses (Ratio)
system.cpu.dcache.HardPFReq.avgMshrMissLatency::cpu.dcache.prefetcher 103570.513170                       # average HardPFReq mshr miss latency ((Tick/Count))
system.cpu.dcache.HardPFReq.avgMshrMissLatency::total 103570.513170                       # average HardPFReq mshr miss latency ((Tick/Count))
system.cpu.dcache.LoadLockedReq.hits::switch_cpus.data          155                       # number of LoadLockedReq hits (Count)
system.cpu.dcache.LoadLockedReq.hits::total          155                       # number of LoadLockedReq hits (Count)
system.cpu.dcache.LoadLockedReq.misses::switch_cpus.data           11                       # number of LoadLockedReq misses (Count)
system.cpu.dcache.LoadLockedReq.misses::total           11                       # number of LoadLockedReq misses (Count)
system.cpu.dcache.LoadLockedReq.missLatency::switch_cpus.data      1009000                       # number of LoadLockedReq miss ticks (Tick)
system.cpu.dcache.LoadLockedReq.missLatency::total      1009000                       # number of LoadLockedReq miss ticks (Tick)
system.cpu.dcache.LoadLockedReq.accesses::switch_cpus.data          166                       # number of LoadLockedReq accesses(hits+misses) (Count)
system.cpu.dcache.LoadLockedReq.accesses::total          166                       # number of LoadLockedReq accesses(hits+misses) (Count)
system.cpu.dcache.LoadLockedReq.missRate::switch_cpus.data     0.066265                       # miss rate for LoadLockedReq accesses (Ratio)
system.cpu.dcache.LoadLockedReq.missRate::total     0.066265                       # miss rate for LoadLockedReq accesses (Ratio)
system.cpu.dcache.LoadLockedReq.avgMissLatency::switch_cpus.data 91727.272727                       # average LoadLockedReq miss latency ((Tick/Count))
system.cpu.dcache.LoadLockedReq.avgMissLatency::total 91727.272727                       # average LoadLockedReq miss latency ((Tick/Count))
system.cpu.dcache.LoadLockedReq.mshrMisses::switch_cpus.data           11                       # number of LoadLockedReq MSHR misses (Count)
system.cpu.dcache.LoadLockedReq.mshrMisses::total           11                       # number of LoadLockedReq MSHR misses (Count)
system.cpu.dcache.LoadLockedReq.mshrMissLatency::switch_cpus.data       987000                       # number of LoadLockedReq MSHR miss ticks (Tick)
system.cpu.dcache.LoadLockedReq.mshrMissLatency::total       987000                       # number of LoadLockedReq MSHR miss ticks (Tick)
system.cpu.dcache.LoadLockedReq.mshrMissRate::switch_cpus.data     0.066265                       # mshr miss rate for LoadLockedReq accesses (Ratio)
system.cpu.dcache.LoadLockedReq.mshrMissRate::total     0.066265                       # mshr miss rate for LoadLockedReq accesses (Ratio)
system.cpu.dcache.LoadLockedReq.avgMshrMissLatency::switch_cpus.data 89727.272727                       # average LoadLockedReq mshr miss latency ((Tick/Count))
system.cpu.dcache.LoadLockedReq.avgMshrMissLatency::total 89727.272727                       # average LoadLockedReq mshr miss latency ((Tick/Count))
system.cpu.dcache.ReadReq.hits::cpu.data            1                       # number of ReadReq hits (Count)
system.cpu.dcache.ReadReq.hits::switch_cpus.data      5935668                       # number of ReadReq hits (Count)
system.cpu.dcache.ReadReq.hits::total         5935669                       # number of ReadReq hits (Count)
system.cpu.dcache.ReadReq.misses::cpu.data            4                       # number of ReadReq misses (Count)
system.cpu.dcache.ReadReq.misses::switch_cpus.data       554061                       # number of ReadReq misses (Count)
system.cpu.dcache.ReadReq.misses::total        554065                       # number of ReadReq misses (Count)
system.cpu.dcache.ReadReq.missLatency::switch_cpus.data  30495930000                       # number of ReadReq miss ticks (Tick)
system.cpu.dcache.ReadReq.missLatency::total  30495930000                       # number of ReadReq miss ticks (Tick)
system.cpu.dcache.ReadReq.accesses::cpu.data            5                       # number of ReadReq accesses(hits+misses) (Count)
system.cpu.dcache.ReadReq.accesses::switch_cpus.data      6489729                       # number of ReadReq accesses(hits+misses) (Count)
system.cpu.dcache.ReadReq.accesses::total      6489734                       # number of ReadReq accesses(hits+misses) (Count)
system.cpu.dcache.ReadReq.missRate::cpu.data     0.800000                       # miss rate for ReadReq accesses (Ratio)
system.cpu.dcache.ReadReq.missRate::switch_cpus.data     0.085375                       # miss rate for ReadReq accesses (Ratio)
system.cpu.dcache.ReadReq.missRate::total     0.085376                       # miss rate for ReadReq accesses (Ratio)
system.cpu.dcache.ReadReq.avgMissLatency::switch_cpus.data 55040.744611                       # average ReadReq miss latency ((Tick/Count))
system.cpu.dcache.ReadReq.avgMissLatency::total 55040.347252                       # average ReadReq miss latency ((Tick/Count))
system.cpu.dcache.ReadReq.mshrHits::switch_cpus.data       339876                       # number of ReadReq MSHR hits (Count)
system.cpu.dcache.ReadReq.mshrHits::total       339876                       # number of ReadReq MSHR hits (Count)
system.cpu.dcache.ReadReq.mshrMisses::switch_cpus.data       214185                       # number of ReadReq MSHR misses (Count)
system.cpu.dcache.ReadReq.mshrMisses::total       214185                       # number of ReadReq MSHR misses (Count)
system.cpu.dcache.ReadReq.mshrMissLatency::switch_cpus.data  10286379000                       # number of ReadReq MSHR miss ticks (Tick)
system.cpu.dcache.ReadReq.mshrMissLatency::total  10286379000                       # number of ReadReq MSHR miss ticks (Tick)
system.cpu.dcache.ReadReq.mshrMissRate::switch_cpus.data     0.033004                       # mshr miss rate for ReadReq accesses (Ratio)
system.cpu.dcache.ReadReq.mshrMissRate::total     0.033004                       # mshr miss rate for ReadReq accesses (Ratio)
system.cpu.dcache.ReadReq.avgMshrMissLatency::switch_cpus.data 48025.674067                       # average ReadReq mshr miss latency ((Tick/Count))
system.cpu.dcache.ReadReq.avgMshrMissLatency::total 48025.674067                       # average ReadReq mshr miss latency ((Tick/Count))
system.cpu.dcache.StoreCondReq.hits::switch_cpus.data           44                       # number of StoreCondReq hits (Count)
system.cpu.dcache.StoreCondReq.hits::total           44                       # number of StoreCondReq hits (Count)
system.cpu.dcache.StoreCondReq.accesses::switch_cpus.data           44                       # number of StoreCondReq accesses(hits+misses) (Count)
system.cpu.dcache.StoreCondReq.accesses::total           44                       # number of StoreCondReq accesses(hits+misses) (Count)
system.cpu.dcache.WriteReq.hits::switch_cpus.data       491985                       # number of WriteReq hits (Count)
system.cpu.dcache.WriteReq.hits::total         491985                       # number of WriteReq hits (Count)
system.cpu.dcache.WriteReq.misses::switch_cpus.data       290792                       # number of WriteReq misses (Count)
system.cpu.dcache.WriteReq.misses::total       290792                       # number of WriteReq misses (Count)
system.cpu.dcache.WriteReq.missLatency::switch_cpus.data  16415644748                       # number of WriteReq miss ticks (Tick)
system.cpu.dcache.WriteReq.missLatency::total  16415644748                       # number of WriteReq miss ticks (Tick)
system.cpu.dcache.WriteReq.accesses::switch_cpus.data       782777                       # number of WriteReq accesses(hits+misses) (Count)
system.cpu.dcache.WriteReq.accesses::total       782777                       # number of WriteReq accesses(hits+misses) (Count)
system.cpu.dcache.WriteReq.missRate::switch_cpus.data     0.371488                       # miss rate for WriteReq accesses (Ratio)
system.cpu.dcache.WriteReq.missRate::total     0.371488                       # miss rate for WriteReq accesses (Ratio)
system.cpu.dcache.WriteReq.avgMissLatency::switch_cpus.data 56451.500550                       # average WriteReq miss latency ((Tick/Count))
system.cpu.dcache.WriteReq.avgMissLatency::total 56451.500550                       # average WriteReq miss latency ((Tick/Count))
system.cpu.dcache.WriteReq.mshrHits::switch_cpus.data          302                       # number of WriteReq MSHR hits (Count)
system.cpu.dcache.WriteReq.mshrHits::total          302                       # number of WriteReq MSHR hits (Count)
system.cpu.dcache.WriteReq.mshrMisses::switch_cpus.data       290490                       # number of WriteReq MSHR misses (Count)
system.cpu.dcache.WriteReq.mshrMisses::total       290490                       # number of WriteReq MSHR misses (Count)
system.cpu.dcache.WriteReq.mshrMissLatency::switch_cpus.data  15823174931                       # number of WriteReq MSHR miss ticks (Tick)
system.cpu.dcache.WriteReq.mshrMissLatency::total  15823174931                       # number of WriteReq MSHR miss ticks (Tick)
system.cpu.dcache.WriteReq.mshrMissRate::switch_cpus.data     0.371102                       # mshr miss rate for WriteReq accesses (Ratio)
system.cpu.dcache.WriteReq.mshrMissRate::total     0.371102                       # mshr miss rate for WriteReq accesses (Ratio)
system.cpu.dcache.WriteReq.avgMshrMissLatency::switch_cpus.data 54470.635585                       # average WriteReq mshr miss latency ((Tick/Count))
system.cpu.dcache.WriteReq.avgMshrMissLatency::total 54470.635585                       # average WriteReq mshr miss latency ((Tick/Count))
system.cpu.dcache.power_state.pwrStateResidencyTicks::UNDEFINED 118764968375000                       # Cumulative time (in ticks) in various power states (Tick)
system.cpu.dcache.prefetcher.demandMshrMisses       504675                       # demands not covered by prefetchs (Count)
system.cpu.dcache.prefetcher.pfIssued            3522                       # number of hwpf issued (Count)
system.cpu.dcache.prefetcher.pfUnused            3317                       # number of HardPF blocks evicted w/o reference (Count)
system.cpu.dcache.prefetcher.pfUseful              32                       # number of useful prefetch (Count)
system.cpu.dcache.prefetcher.pfUsefulButMiss            0                       # number of hit on prefetch but cache block is not in an usable state (Count)
system.cpu.dcache.prefetcher.accuracy        0.009086                       # accuracy of the prefetcher (Count)
system.cpu.dcache.prefetcher.coverage        0.000063                       # coverage brought by this prefetcher (Count)
system.cpu.dcache.prefetcher.pfHitInCache          103                       # number of prefetches hitting in cache (Count)
system.cpu.dcache.prefetcher.pfHitInMSHR           40                       # number of prefetches hitting in a MSHR (Count)
system.cpu.dcache.prefetcher.pfHitInWB              0                       # number of prefetches hit in the Write Buffer (Count)
system.cpu.dcache.prefetcher.pfLate               143                       # number of late prefetches (hitting in cache, MSHR or WB) (Count)
system.cpu.dcache.prefetcher.pfIdentified         5795                       # number of prefetch candidates identified (Count)
system.cpu.dcache.prefetcher.pfBufferHit          214                       # number of redundant prefetches already in prefetch queue (Count)
system.cpu.dcache.prefetcher.pfInCache              0                       # number of redundant prefetches already in cache/mshr dropped (Count)
system.cpu.dcache.prefetcher.pfRemovedDemand           12                       # number of prefetches dropped due to a demand for the same address (Count)
system.cpu.dcache.prefetcher.pfRemovedFull            2                       # number of prefetches dropped due to prefetch queue size (Count)
system.cpu.dcache.prefetcher.pfSpanPage          3543                       # number of prefetches that crossed the page (Count)
system.cpu.dcache.prefetcher.pfUsefulSpanPage            0                       # number of prefetches that is useful and crossed the page (Count)
system.cpu.dcache.prefetcher.power_state.pwrStateResidencyTicks::UNDEFINED 118764968375000                       # Cumulative time (in ticks) in various power states (Tick)
system.cpu.dcache.tags.tagsInUse           511.322664                       # Average ticks per tags in use ((Tick/Count))
system.cpu.dcache.tags.totalRefs              6902308                       # Total number of references to valid blocks. (Count)
system.cpu.dcache.tags.sampledRefs             507557                       # Sample count of references to valid blocks. (Count)
system.cpu.dcache.tags.avgRefs              13.599080                       # Average number of references to valid blocks. ((Count/Count))
system.cpu.dcache.tags.warmupTick        118749299571000                       # The tick when the warmup percentage was hit. (Tick)
system.cpu.dcache.tags.occupancies::cpu.data     0.054783                       # Average occupied blocks per tick, per requestor ((Count/Tick))
system.cpu.dcache.tags.occupancies::cpu.dcache.prefetcher     3.025708                       # Average occupied blocks per tick, per requestor ((Count/Tick))
system.cpu.dcache.tags.occupancies::switch_cpus.data   508.242173                       # Average occupied blocks per tick, per requestor ((Count/Tick))
system.cpu.dcache.tags.avgOccs::cpu.data     0.000107                       # Average percentage of cache occupancy ((Ratio/Tick))
system.cpu.dcache.tags.avgOccs::cpu.dcache.prefetcher     0.005910                       # Average percentage of cache occupancy ((Ratio/Tick))
system.cpu.dcache.tags.avgOccs::switch_cpus.data     0.992660                       # Average percentage of cache occupancy ((Ratio/Tick))
system.cpu.dcache.tags.avgOccs::total        0.998677                       # Average percentage of cache occupancy ((Ratio/Tick))
system.cpu.dcache.tags.occupanciesTaskId::1022           28                       # Occupied blocks per task id (Count)
system.cpu.dcache.tags.occupanciesTaskId::1024          484                       # Occupied blocks per task id (Count)
system.cpu.dcache.tags.ageTaskId_1022::0           28                       # Occupied blocks per task id, per block age (Count)
system.cpu.dcache.tags.ageTaskId_1024::0          209                       # Occupied blocks per task id, per block age (Count)
system.cpu.dcache.tags.ageTaskId_1024::1          275                       # Occupied blocks per task id, per block age (Count)
system.cpu.dcache.tags.ratioOccsTaskId::1022     0.054688                       # Ratio of occupied blocks and all blocks, per task id (Ratio)
system.cpu.dcache.tags.ratioOccsTaskId::1024     0.945312                       # Ratio of occupied blocks and all blocks, per task id (Ratio)
system.cpu.dcache.tags.tagAccesses           58689837                       # Number of tag accesses (Count)
system.cpu.dcache.tags.dataAccesses          58689837                       # Number of data accesses (Count)
system.cpu.dcache.tags.power_state.pwrStateResidencyTicks::UNDEFINED 118764968375000                       # Cumulative time (in ticks) in various power states (Tick)
system.cpu.exec_context.thread_0.numInsts           10                       # Number of instructions committed (Count)
system.cpu.exec_context.thread_0.numOps            10                       # Number of ops (including micro ops) committed (Count)
system.cpu.exec_context.thread_0.numIntAluAccesses            8                       # Number of integer alu accesses (Count)
system.cpu.exec_context.thread_0.numFpAluAccesses            0                       # Number of float alu accesses (Count)
system.cpu.exec_context.thread_0.numVecAluAccesses            0                       # Number of vector alu accesses (Count)
system.cpu.exec_context.thread_0.numCallsReturns            0                       # Number of times a function call or return occured (Count)
system.cpu.exec_context.thread_0.numCondCtrlInsts            2                       # Number of instructions that are conditional controls (Count)
system.cpu.exec_context.thread_0.numIntInsts            8                       # Number of integer instructions (Count)
system.cpu.exec_context.thread_0.numFpInsts            0                       # Number of float instructions (Count)
system.cpu.exec_context.thread_0.numVecInsts            0                       # Number of vector instructions (Count)
system.cpu.exec_context.thread_0.numIntRegReads           11                       # Number of times the integer registers were read (Count)
system.cpu.exec_context.thread_0.numIntRegWrites            6                       # Number of times the integer registers were written (Count)
system.cpu.exec_context.thread_0.numFpRegReads            0                       # Number of times the floating registers were read (Count)
system.cpu.exec_context.thread_0.numFpRegWrites            0                       # Number of times the floating registers were written (Count)
system.cpu.exec_context.thread_0.numVecRegReads            0                       # Number of times the vector registers were read (Count)
system.cpu.exec_context.thread_0.numVecRegWrites            0                       # Number of times the vector registers were written (Count)
system.cpu.exec_context.thread_0.numVecPredRegReads            0                       # Number of times the predicate registers were read (Count)
system.cpu.exec_context.thread_0.numVecPredRegWrites            0                       # Number of times the predicate registers were written (Count)
system.cpu.exec_context.thread_0.numCCRegReads           30                       # Number of times the CC registers were read (Count)
system.cpu.exec_context.thread_0.numCCRegWrites            6                       # Number of times the CC registers were written (Count)
system.cpu.exec_context.thread_0.numMiscRegReads            5                       # Number of times the Misc registers were read (Count)
system.cpu.exec_context.thread_0.numMiscRegWrites            0                       # Number of times the Misc registers were written (Count)
system.cpu.exec_context.thread_0.numMemRefs            5                       # Number of memory refs (Count)
system.cpu.exec_context.thread_0.numLoadInsts            5                       # Number of load instructions (Count)
system.cpu.exec_context.thread_0.numStoreInsts            0                       # Number of store instructions (Count)
system.cpu.exec_context.thread_0.numIdleCycles            0                       # Number of idle cycles (Cycle)
system.cpu.exec_context.thread_0.numBusyCycles           10                       # Number of busy cycles (Cycle)
system.cpu.exec_context.thread_0.notIdleFraction            1                       # Percentage of non-idle cycles (Ratio)
system.cpu.exec_context.thread_0.idleFraction            0                       # Percentage of idle cycles (Ratio)
system.cpu.exec_context.thread_0.numBranches            2                       # Number of branches fetched (Count)
system.cpu.exec_context.thread_0.statExecutedInstType::No_OpClass            0      0.00%      0.00% # Class of executed instruction. (Count)
system.cpu.exec_context.thread_0.statExecutedInstType::IntAlu            5     50.00%     50.00% # Class of executed instruction. (Count)
system.cpu.exec_context.thread_0.statExecutedInstType::IntMult            0      0.00%     50.00% # Class of executed instruction. (Count)
system.cpu.exec_context.thread_0.statExecutedInstType::IntDiv            0      0.00%     50.00% # Class of executed instruction. (Count)
system.cpu.exec_context.thread_0.statExecutedInstType::FloatAdd            0      0.00%     50.00% # Class of executed instruction. (Count)
system.cpu.exec_context.thread_0.statExecutedInstType::FloatCmp            0      0.00%     50.00% # Class of executed instruction. (Count)
system.cpu.exec_context.thread_0.statExecutedInstType::FloatCvt            0      0.00%     50.00% # Class of executed instruction. (Count)
system.cpu.exec_context.thread_0.statExecutedInstType::FloatMult            0      0.00%     50.00% # Class of executed instruction. (Count)
system.cpu.exec_context.thread_0.statExecutedInstType::FloatMultAcc            0      0.00%     50.00% # Class of executed instruction. (Count)
system.cpu.exec_context.thread_0.statExecutedInstType::FloatDiv            0      0.00%     50.00% # Class of executed instruction. (Count)
system.cpu.exec_context.thread_0.statExecutedInstType::FloatMisc            0      0.00%     50.00% # Class of executed instruction. (Count)
system.cpu.exec_context.thread_0.statExecutedInstType::FloatSqrt            0      0.00%     50.00% # Class of executed instruction. (Count)
system.cpu.exec_context.thread_0.statExecutedInstType::SimdAdd            0      0.00%     50.00% # Class of executed instruction. (Count)
system.cpu.exec_context.thread_0.statExecutedInstType::SimdAddAcc            0      0.00%     50.00% # Class of executed instruction. (Count)
system.cpu.exec_context.thread_0.statExecutedInstType::SimdAlu            0      0.00%     50.00% # Class of executed instruction. (Count)
system.cpu.exec_context.thread_0.statExecutedInstType::SimdCmp            0      0.00%     50.00% # Class of executed instruction. (Count)
system.cpu.exec_context.thread_0.statExecutedInstType::SimdCvt            0      0.00%     50.00% # Class of executed instruction. (Count)
system.cpu.exec_context.thread_0.statExecutedInstType::SimdMisc            0      0.00%     50.00% # Class of executed instruction. (Count)
system.cpu.exec_context.thread_0.statExecutedInstType::SimdMult            0      0.00%     50.00% # Class of executed instruction. (Count)
system.cpu.exec_context.thread_0.statExecutedInstType::SimdMultAcc            0      0.00%     50.00% # Class of executed instruction. (Count)
system.cpu.exec_context.thread_0.statExecutedInstType::SimdShift            0      0.00%     50.00% # Class of executed instruction. (Count)
system.cpu.exec_context.thread_0.statExecutedInstType::SimdShiftAcc            0      0.00%     50.00% # Class of executed instruction. (Count)
system.cpu.exec_context.thread_0.statExecutedInstType::SimdDiv            0      0.00%     50.00% # Class of executed instruction. (Count)
system.cpu.exec_context.thread_0.statExecutedInstType::SimdSqrt            0      0.00%     50.00% # Class of executed instruction. (Count)
system.cpu.exec_context.thread_0.statExecutedInstType::SimdFloatAdd            0      0.00%     50.00% # Class of executed instruction. (Count)
system.cpu.exec_context.thread_0.statExecutedInstType::SimdFloatAlu            0      0.00%     50.00% # Class of executed instruction. (Count)
system.cpu.exec_context.thread_0.statExecutedInstType::SimdFloatCmp            0      0.00%     50.00% # Class of executed instruction. (Count)
system.cpu.exec_context.thread_0.statExecutedInstType::SimdFloatCvt            0      0.00%     50.00% # Class of executed instruction. (Count)
system.cpu.exec_context.thread_0.statExecutedInstType::SimdFloatDiv            0      0.00%     50.00% # Class of executed instruction. (Count)
system.cpu.exec_context.thread_0.statExecutedInstType::SimdFloatMisc            0      0.00%     50.00% # Class of executed instruction. (Count)
system.cpu.exec_context.thread_0.statExecutedInstType::SimdFloatMult            0      0.00%     50.00% # Class of executed instruction. (Count)
system.cpu.exec_context.thread_0.statExecutedInstType::SimdFloatMultAcc            0      0.00%     50.00% # Class of executed instruction. (Count)
system.cpu.exec_context.thread_0.statExecutedInstType::SimdFloatSqrt            0      0.00%     50.00% # Class of executed instruction. (Count)
system.cpu.exec_context.thread_0.statExecutedInstType::SimdReduceAdd            0      0.00%     50.00% # Class of executed instruction. (Count)
system.cpu.exec_context.thread_0.statExecutedInstType::SimdReduceAlu            0      0.00%     50.00% # Class of executed instruction. (Count)
system.cpu.exec_context.thread_0.statExecutedInstType::SimdReduceCmp            0      0.00%     50.00% # Class of executed instruction. (Count)
system.cpu.exec_context.thread_0.statExecutedInstType::SimdFloatReduceAdd            0      0.00%     50.00% # Class of executed instruction. (Count)
system.cpu.exec_context.thread_0.statExecutedInstType::SimdFloatReduceCmp            0      0.00%     50.00% # Class of executed instruction. (Count)
system.cpu.exec_context.thread_0.statExecutedInstType::SimdAes            0      0.00%     50.00% # Class of executed instruction. (Count)
system.cpu.exec_context.thread_0.statExecutedInstType::SimdAesMix            0      0.00%     50.00% # Class of executed instruction. (Count)
system.cpu.exec_context.thread_0.statExecutedInstType::SimdSha1Hash            0      0.00%     50.00% # Class of executed instruction. (Count)
system.cpu.exec_context.thread_0.statExecutedInstType::SimdSha1Hash2            0      0.00%     50.00% # Class of executed instruction. (Count)
system.cpu.exec_context.thread_0.statExecutedInstType::SimdSha256Hash            0      0.00%     50.00% # Class of executed instruction. (Count)
system.cpu.exec_context.thread_0.statExecutedInstType::SimdSha256Hash2            0      0.00%     50.00% # Class of executed instruction. (Count)
system.cpu.exec_context.thread_0.statExecutedInstType::SimdShaSigma2            0      0.00%     50.00% # Class of executed instruction. (Count)
system.cpu.exec_context.thread_0.statExecutedInstType::SimdShaSigma3            0      0.00%     50.00% # Class of executed instruction. (Count)
system.cpu.exec_context.thread_0.statExecutedInstType::SimdPredAlu            0      0.00%     50.00% # Class of executed instruction. (Count)
system.cpu.exec_context.thread_0.statExecutedInstType::MemRead            5     50.00%    100.00% # Class of executed instruction. (Count)
system.cpu.exec_context.thread_0.statExecutedInstType::MemWrite            0      0.00%    100.00% # Class of executed instruction. (Count)
system.cpu.exec_context.thread_0.statExecutedInstType::FloatMemRead            0      0.00%    100.00% # Class of executed instruction. (Count)
system.cpu.exec_context.thread_0.statExecutedInstType::FloatMemWrite            0      0.00%    100.00% # Class of executed instruction. (Count)
system.cpu.exec_context.thread_0.statExecutedInstType::IprAccess            0      0.00%    100.00% # Class of executed instruction. (Count)
system.cpu.exec_context.thread_0.statExecutedInstType::InstPrefetch            0      0.00%    100.00% # Class of executed instruction. (Count)
system.cpu.exec_context.thread_0.statExecutedInstType::total           10                       # Class of executed instruction. (Count)
system.cpu.icache.demandHits::cpu.inst              7                       # number of demand (read+write) hits (Count)
system.cpu.icache.demandHits::switch_cpus.inst      4126839                       # number of demand (read+write) hits (Count)
system.cpu.icache.demandHits::total           4126846                       # number of demand (read+write) hits (Count)
system.cpu.icache.overallHits::cpu.inst             7                       # number of overall hits (Count)
system.cpu.icache.overallHits::switch_cpus.inst      4126839                       # number of overall hits (Count)
system.cpu.icache.overallHits::total          4126846                       # number of overall hits (Count)
system.cpu.icache.demandMisses::cpu.inst            3                       # number of demand (read+write) misses (Count)
system.cpu.icache.demandMisses::switch_cpus.inst           95                       # number of demand (read+write) misses (Count)
system.cpu.icache.demandMisses::total              98                       # number of demand (read+write) misses (Count)
system.cpu.icache.overallMisses::cpu.inst            3                       # number of overall misses (Count)
system.cpu.icache.overallMisses::switch_cpus.inst           95                       # number of overall misses (Count)
system.cpu.icache.overallMisses::total             98                       # number of overall misses (Count)
system.cpu.icache.demandMissLatency::switch_cpus.inst      9650000                       # number of demand (read+write) miss ticks (Tick)
system.cpu.icache.demandMissLatency::total      9650000                       # number of demand (read+write) miss ticks (Tick)
system.cpu.icache.overallMissLatency::switch_cpus.inst      9650000                       # number of overall miss ticks (Tick)
system.cpu.icache.overallMissLatency::total      9650000                       # number of overall miss ticks (Tick)
system.cpu.icache.demandAccesses::cpu.inst           10                       # number of demand (read+write) accesses (Count)
system.cpu.icache.demandAccesses::switch_cpus.inst      4126934                       # number of demand (read+write) accesses (Count)
system.cpu.icache.demandAccesses::total       4126944                       # number of demand (read+write) accesses (Count)
system.cpu.icache.overallAccesses::cpu.inst           10                       # number of overall (read+write) accesses (Count)
system.cpu.icache.overallAccesses::switch_cpus.inst      4126934                       # number of overall (read+write) accesses (Count)
system.cpu.icache.overallAccesses::total      4126944                       # number of overall (read+write) accesses (Count)
system.cpu.icache.demandMissRate::cpu.inst     0.300000                       # miss rate for demand accesses (Ratio)
system.cpu.icache.demandMissRate::switch_cpus.inst     0.000023                       # miss rate for demand accesses (Ratio)
system.cpu.icache.demandMissRate::total      0.000024                       # miss rate for demand accesses (Ratio)
system.cpu.icache.overallMissRate::cpu.inst     0.300000                       # miss rate for overall accesses (Ratio)
system.cpu.icache.overallMissRate::switch_cpus.inst     0.000023                       # miss rate for overall accesses (Ratio)
system.cpu.icache.overallMissRate::total     0.000024                       # miss rate for overall accesses (Ratio)
system.cpu.icache.demandAvgMissLatency::switch_cpus.inst 101578.947368                       # average overall miss latency in ticks ((Tick/Count))
system.cpu.icache.demandAvgMissLatency::total 98469.387755                       # average overall miss latency in ticks ((Tick/Count))
system.cpu.icache.overallAvgMissLatency::switch_cpus.inst 101578.947368                       # average overall miss latency ((Tick/Count))
system.cpu.icache.overallAvgMissLatency::total 98469.387755                       # average overall miss latency ((Tick/Count))
system.cpu.icache.blockedCycles::no_mshrs            0                       # number of cycles access was blocked (Cycle)
system.cpu.icache.blockedCycles::no_targets            0                       # number of cycles access was blocked (Cycle)
system.cpu.icache.blockedCauses::no_mshrs            0                       # number of times access was blocked (Count)
system.cpu.icache.blockedCauses::no_targets            0                       # number of times access was blocked (Count)
system.cpu.icache.avgBlocked::no_mshrs            nan                       # average number of cycles each access was blocked ((Cycle/Count))
system.cpu.icache.avgBlocked::no_targets          nan                       # average number of cycles each access was blocked ((Cycle/Count))
system.cpu.icache.demandMshrHits::switch_cpus.inst            8                       # number of demand (read+write) MSHR hits (Count)
system.cpu.icache.demandMshrHits::total             8                       # number of demand (read+write) MSHR hits (Count)
system.cpu.icache.overallMshrHits::switch_cpus.inst            8                       # number of overall MSHR hits (Count)
system.cpu.icache.overallMshrHits::total            8                       # number of overall MSHR hits (Count)
system.cpu.icache.demandMshrMisses::switch_cpus.inst           87                       # number of demand (read+write) MSHR misses (Count)
system.cpu.icache.demandMshrMisses::total           87                       # number of demand (read+write) MSHR misses (Count)
system.cpu.icache.overallMshrMisses::switch_cpus.inst           87                       # number of overall MSHR misses (Count)
system.cpu.icache.overallMshrMisses::total           87                       # number of overall MSHR misses (Count)
system.cpu.icache.demandMshrMissLatency::switch_cpus.inst      8823000                       # number of demand (read+write) MSHR miss ticks (Tick)
system.cpu.icache.demandMshrMissLatency::total      8823000                       # number of demand (read+write) MSHR miss ticks (Tick)
system.cpu.icache.overallMshrMissLatency::switch_cpus.inst      8823000                       # number of overall MSHR miss ticks (Tick)
system.cpu.icache.overallMshrMissLatency::total      8823000                       # number of overall MSHR miss ticks (Tick)
system.cpu.icache.demandMshrMissRate::switch_cpus.inst     0.000021                       # mshr miss ratio for demand accesses (Ratio)
system.cpu.icache.demandMshrMissRate::total     0.000021                       # mshr miss ratio for demand accesses (Ratio)
system.cpu.icache.overallMshrMissRate::switch_cpus.inst     0.000021                       # mshr miss ratio for overall accesses (Ratio)
system.cpu.icache.overallMshrMissRate::total     0.000021                       # mshr miss ratio for overall accesses (Ratio)
system.cpu.icache.demandAvgMshrMissLatency::switch_cpus.inst 101413.793103                       # average overall mshr miss latency ((Tick/Count))
system.cpu.icache.demandAvgMshrMissLatency::total 101413.793103                       # average overall mshr miss latency ((Tick/Count))
system.cpu.icache.overallAvgMshrMissLatency::switch_cpus.inst 101413.793103                       # average overall mshr miss latency ((Tick/Count))
system.cpu.icache.overallAvgMshrMissLatency::total 101413.793103                       # average overall mshr miss latency ((Tick/Count))
system.cpu.icache.replacements                      0                       # number of replacements (Count)
system.cpu.icache.ReadReq.hits::cpu.inst            7                       # number of ReadReq hits (Count)
system.cpu.icache.ReadReq.hits::switch_cpus.inst      4126839                       # number of ReadReq hits (Count)
system.cpu.icache.ReadReq.hits::total         4126846                       # number of ReadReq hits (Count)
system.cpu.icache.ReadReq.misses::cpu.inst            3                       # number of ReadReq misses (Count)
system.cpu.icache.ReadReq.misses::switch_cpus.inst           95                       # number of ReadReq misses (Count)
system.cpu.icache.ReadReq.misses::total            98                       # number of ReadReq misses (Count)
system.cpu.icache.ReadReq.missLatency::switch_cpus.inst      9650000                       # number of ReadReq miss ticks (Tick)
system.cpu.icache.ReadReq.missLatency::total      9650000                       # number of ReadReq miss ticks (Tick)
system.cpu.icache.ReadReq.accesses::cpu.inst           10                       # number of ReadReq accesses(hits+misses) (Count)
system.cpu.icache.ReadReq.accesses::switch_cpus.inst      4126934                       # number of ReadReq accesses(hits+misses) (Count)
system.cpu.icache.ReadReq.accesses::total      4126944                       # number of ReadReq accesses(hits+misses) (Count)
system.cpu.icache.ReadReq.missRate::cpu.inst     0.300000                       # miss rate for ReadReq accesses (Ratio)
system.cpu.icache.ReadReq.missRate::switch_cpus.inst     0.000023                       # miss rate for ReadReq accesses (Ratio)
system.cpu.icache.ReadReq.missRate::total     0.000024                       # miss rate for ReadReq accesses (Ratio)
system.cpu.icache.ReadReq.avgMissLatency::switch_cpus.inst 101578.947368                       # average ReadReq miss latency ((Tick/Count))
system.cpu.icache.ReadReq.avgMissLatency::total 98469.387755                       # average ReadReq miss latency ((Tick/Count))
system.cpu.icache.ReadReq.mshrHits::switch_cpus.inst            8                       # number of ReadReq MSHR hits (Count)
system.cpu.icache.ReadReq.mshrHits::total            8                       # number of ReadReq MSHR hits (Count)
system.cpu.icache.ReadReq.mshrMisses::switch_cpus.inst           87                       # number of ReadReq MSHR misses (Count)
system.cpu.icache.ReadReq.mshrMisses::total           87                       # number of ReadReq MSHR misses (Count)
system.cpu.icache.ReadReq.mshrMissLatency::switch_cpus.inst      8823000                       # number of ReadReq MSHR miss ticks (Tick)
system.cpu.icache.ReadReq.mshrMissLatency::total      8823000                       # number of ReadReq MSHR miss ticks (Tick)
system.cpu.icache.ReadReq.mshrMissRate::switch_cpus.inst     0.000021                       # mshr miss rate for ReadReq accesses (Ratio)
system.cpu.icache.ReadReq.mshrMissRate::total     0.000021                       # mshr miss rate for ReadReq accesses (Ratio)
system.cpu.icache.ReadReq.avgMshrMissLatency::switch_cpus.inst 101413.793103                       # average ReadReq mshr miss latency ((Tick/Count))
system.cpu.icache.ReadReq.avgMshrMissLatency::total 101413.793103                       # average ReadReq mshr miss latency ((Tick/Count))
system.cpu.icache.power_state.pwrStateResidencyTicks::UNDEFINED 118764968375000                       # Cumulative time (in ticks) in various power states (Tick)
system.cpu.icache.tags.tagsInUse            82.476918                       # Average ticks per tags in use ((Tick/Count))
system.cpu.icache.tags.totalRefs                    0                       # Total number of references to valid blocks. (Count)
system.cpu.icache.tags.sampledRefs                  0                       # Sample count of references to valid blocks. (Count)
system.cpu.icache.tags.avgRefs                    nan                       # Average number of references to valid blocks. ((Count/Count))
system.cpu.icache.tags.warmupTick        118749299569000                       # The tick when the warmup percentage was hit. (Tick)
system.cpu.icache.tags.occupancies::cpu.inst     2.999999                       # Average occupied blocks per tick, per requestor ((Count/Tick))
system.cpu.icache.tags.occupancies::switch_cpus.inst    79.476919                       # Average occupied blocks per tick, per requestor ((Count/Tick))
system.cpu.icache.tags.avgOccs::cpu.inst     0.005859                       # Average percentage of cache occupancy ((Ratio/Tick))
system.cpu.icache.tags.avgOccs::switch_cpus.inst     0.155228                       # Average percentage of cache occupancy ((Ratio/Tick))
system.cpu.icache.tags.avgOccs::total        0.161088                       # Average percentage of cache occupancy ((Ratio/Tick))
system.cpu.icache.tags.occupanciesTaskId::1024           90                       # Occupied blocks per task id (Count)
system.cpu.icache.tags.ageTaskId_1024::3            8                       # Occupied blocks per task id, per block age (Count)
system.cpu.icache.tags.ageTaskId_1024::4           82                       # Occupied blocks per task id, per block age (Count)
system.cpu.icache.tags.ratioOccsTaskId::1024     0.175781                       # Ratio of occupied blocks and all blocks, per task id (Ratio)
system.cpu.icache.tags.tagAccesses           33015642                       # Number of tag accesses (Count)
system.cpu.icache.tags.dataAccesses          33015642                       # Number of data accesses (Count)
system.cpu.icache.tags.power_state.pwrStateResidencyTicks::UNDEFINED 118764968375000                       # Cumulative time (in ticks) in various power states (Tick)
system.cpu.mmu.alignFaults                          0                       # Number of MMU faults due to alignment restrictions (Count)
system.cpu.mmu.prefetchFaults                       0                       # Number of MMU faults due to prefetch (Count)
system.cpu.mmu.domainFaults                         0                       # Number of MMU faults due to domain restrictions (Count)
system.cpu.mmu.permsFaults                          0                       # Number of MMU faults due to permissions restrictions (Count)
system.cpu.mmu.dtb.readHits                         0                       # Read hits (Count)
system.cpu.mmu.dtb.readMisses                       0                       # Read misses (Count)
system.cpu.mmu.dtb.writeHits                        0                       # Write hits (Count)
system.cpu.mmu.dtb.writeMisses                      0                       # Write misses (Count)
system.cpu.mmu.dtb.inserts                          0                       # Number of times an entry is inserted into the TLB (Count)
system.cpu.mmu.dtb.flushTlb                         1                       # Number of times complete TLB was flushed (Count)
system.cpu.mmu.dtb.flushTlbMva                      0                       # Number of times TLB was flushed by MVA (Count)
system.cpu.mmu.dtb.flushTlbMvaAsid                  0                       # Number of times TLB was flushed by MVA & ASID (Count)
system.cpu.mmu.dtb.flushTlbAsid                     0                       # Number of times TLB was flushed by ASID (Count)
system.cpu.mmu.dtb.flushedEntries                   0                       # Number of entries that have been flushed from TLB (Count)
system.cpu.mmu.dtb.readAccesses                     0                       # Read accesses (Count)
system.cpu.mmu.dtb.writeAccesses                    0                       # Write accesses (Count)
system.cpu.mmu.dtb.hits                             0                       # Total TLB (inst and data) hits (Count)
system.cpu.mmu.dtb.misses                           0                       # Total TLB (inst and data) misses (Count)
system.cpu.mmu.dtb.accesses                         0                       # Total TLB (inst and data) accesses (Count)
system.cpu.mmu.dtb_walker.walks                     0                       # Table walker walks requested (Count)
system.cpu.mmu.dtb_walker.requestOrigin_Requested::Data            0                       # Table walker requests started/completed, data/inst (Count)
system.cpu.mmu.dtb_walker.requestOrigin_Requested::Inst            0                       # Table walker requests started/completed, data/inst (Count)
system.cpu.mmu.dtb_walker.requestOrigin_Requested::total            0                       # Table walker requests started/completed, data/inst (Count)
system.cpu.mmu.dtb_walker.requestOrigin_Completed::Data            0                       # Table walker requests started/completed, data/inst (Count)
system.cpu.mmu.dtb_walker.requestOrigin_Completed::Inst            0                       # Table walker requests started/completed, data/inst (Count)
system.cpu.mmu.dtb_walker.requestOrigin_Completed::total            0                       # Table walker requests started/completed, data/inst (Count)
system.cpu.mmu.dtb_walker.requestOrigin::total            0                       # Table walker requests started/completed, data/inst (Count)
system.cpu.mmu.dtb_walker.power_state.pwrStateResidencyTicks::UNDEFINED 118764968375000                       # Cumulative time (in ticks) in various power states (Tick)
system.cpu.mmu.itb.instHits                         0                       # Inst hits (Count)
system.cpu.mmu.itb.instMisses                       0                       # Inst misses (Count)
system.cpu.mmu.itb.inserts                          0                       # Number of times an entry is inserted into the TLB (Count)
system.cpu.mmu.itb.flushTlb                         1                       # Number of times complete TLB was flushed (Count)
system.cpu.mmu.itb.flushTlbMva                      0                       # Number of times TLB was flushed by MVA (Count)
system.cpu.mmu.itb.flushTlbMvaAsid                  0                       # Number of times TLB was flushed by MVA & ASID (Count)
system.cpu.mmu.itb.flushTlbAsid                     0                       # Number of times TLB was flushed by ASID (Count)
system.cpu.mmu.itb.flushedEntries                   0                       # Number of entries that have been flushed from TLB (Count)
system.cpu.mmu.itb.instAccesses                     0                       # Inst accesses (Count)
system.cpu.mmu.itb.hits                             0                       # Total TLB (inst and data) hits (Count)
system.cpu.mmu.itb.misses                           0                       # Total TLB (inst and data) misses (Count)
system.cpu.mmu.itb.accesses                         0                       # Total TLB (inst and data) accesses (Count)
system.cpu.mmu.itb_walker.walks                     0                       # Table walker walks requested (Count)
system.cpu.mmu.itb_walker.requestOrigin_Requested::Data            0                       # Table walker requests started/completed, data/inst (Count)
system.cpu.mmu.itb_walker.requestOrigin_Requested::Inst            0                       # Table walker requests started/completed, data/inst (Count)
system.cpu.mmu.itb_walker.requestOrigin_Requested::total            0                       # Table walker requests started/completed, data/inst (Count)
system.cpu.mmu.itb_walker.requestOrigin_Completed::Data            0                       # Table walker requests started/completed, data/inst (Count)
system.cpu.mmu.itb_walker.requestOrigin_Completed::Inst            0                       # Table walker requests started/completed, data/inst (Count)
system.cpu.mmu.itb_walker.requestOrigin_Completed::total            0                       # Table walker requests started/completed, data/inst (Count)
system.cpu.mmu.itb_walker.requestOrigin::total            0                       # Table walker requests started/completed, data/inst (Count)
system.cpu.mmu.itb_walker.power_state.pwrStateResidencyTicks::UNDEFINED 118764968375000                       # Cumulative time (in ticks) in various power states (Tick)
system.cpu.mmu.l2_shared.instHits                   0                       # Inst hits (Count)
system.cpu.mmu.l2_shared.instMisses                 0                       # Inst misses (Count)
system.cpu.mmu.l2_shared.inserts                    0                       # Number of times an entry is inserted into the TLB (Count)
system.cpu.mmu.l2_shared.flushTlb                   1                       # Number of times complete TLB was flushed (Count)
system.cpu.mmu.l2_shared.flushTlbMva                0                       # Number of times TLB was flushed by MVA (Count)
system.cpu.mmu.l2_shared.flushTlbMvaAsid            0                       # Number of times TLB was flushed by MVA & ASID (Count)
system.cpu.mmu.l2_shared.flushTlbAsid               0                       # Number of times TLB was flushed by ASID (Count)
system.cpu.mmu.l2_shared.flushedEntries             0                       # Number of entries that have been flushed from TLB (Count)
system.cpu.mmu.l2_shared.instAccesses               0                       # Inst accesses (Count)
system.cpu.mmu.l2_shared.hits                       0                       # Total TLB (inst and data) hits (Count)
system.cpu.mmu.l2_shared.misses                     0                       # Total TLB (inst and data) misses (Count)
system.cpu.mmu.l2_shared.accesses                   0                       # Total TLB (inst and data) accesses (Count)
system.cpu.mmu.stage2_dtb.readHits                  0                       # Read hits (Count)
system.cpu.mmu.stage2_dtb.readMisses                0                       # Read misses (Count)
system.cpu.mmu.stage2_dtb.writeHits                 0                       # Write hits (Count)
system.cpu.mmu.stage2_dtb.writeMisses               0                       # Write misses (Count)
system.cpu.mmu.stage2_dtb.inserts                   0                       # Number of times an entry is inserted into the TLB (Count)
system.cpu.mmu.stage2_dtb.flushTlb                  1                       # Number of times complete TLB was flushed (Count)
system.cpu.mmu.stage2_dtb.flushTlbMva               0                       # Number of times TLB was flushed by MVA (Count)
system.cpu.mmu.stage2_dtb.flushTlbMvaAsid            0                       # Number of times TLB was flushed by MVA & ASID (Count)
system.cpu.mmu.stage2_dtb.flushTlbAsid              0                       # Number of times TLB was flushed by ASID (Count)
system.cpu.mmu.stage2_dtb.flushedEntries            0                       # Number of entries that have been flushed from TLB (Count)
system.cpu.mmu.stage2_dtb.readAccesses              0                       # Read accesses (Count)
system.cpu.mmu.stage2_dtb.writeAccesses             0                       # Write accesses (Count)
system.cpu.mmu.stage2_dtb.hits                      0                       # Total TLB (inst and data) hits (Count)
system.cpu.mmu.stage2_dtb.misses                    0                       # Total TLB (inst and data) misses (Count)
system.cpu.mmu.stage2_dtb.accesses                  0                       # Total TLB (inst and data) accesses (Count)
system.cpu.mmu.stage2_dtb_walker.walks              0                       # Table walker walks requested (Count)
system.cpu.mmu.stage2_dtb_walker.requestOrigin_Requested::Data            0                       # Table walker requests started/completed, data/inst (Count)
system.cpu.mmu.stage2_dtb_walker.requestOrigin_Requested::Inst            0                       # Table walker requests started/completed, data/inst (Count)
system.cpu.mmu.stage2_dtb_walker.requestOrigin_Requested::total            0                       # Table walker requests started/completed, data/inst (Count)
system.cpu.mmu.stage2_dtb_walker.requestOrigin_Completed::Data            0                       # Table walker requests started/completed, data/inst (Count)
system.cpu.mmu.stage2_dtb_walker.requestOrigin_Completed::Inst            0                       # Table walker requests started/completed, data/inst (Count)
system.cpu.mmu.stage2_dtb_walker.requestOrigin_Completed::total            0                       # Table walker requests started/completed, data/inst (Count)
system.cpu.mmu.stage2_dtb_walker.requestOrigin::total            0                       # Table walker requests started/completed, data/inst (Count)
system.cpu.mmu.stage2_dtb_walker.power_state.pwrStateResidencyTicks::UNDEFINED 118764968375000                       # Cumulative time (in ticks) in various power states (Tick)
system.cpu.mmu.stage2_itb.instHits                  0                       # Inst hits (Count)
system.cpu.mmu.stage2_itb.instMisses                0                       # Inst misses (Count)
system.cpu.mmu.stage2_itb.inserts                   0                       # Number of times an entry is inserted into the TLB (Count)
system.cpu.mmu.stage2_itb.flushTlb                  1                       # Number of times complete TLB was flushed (Count)
system.cpu.mmu.stage2_itb.flushTlbMva               0                       # Number of times TLB was flushed by MVA (Count)
system.cpu.mmu.stage2_itb.flushTlbMvaAsid            0                       # Number of times TLB was flushed by MVA & ASID (Count)
system.cpu.mmu.stage2_itb.flushTlbAsid              0                       # Number of times TLB was flushed by ASID (Count)
system.cpu.mmu.stage2_itb.flushedEntries            0                       # Number of entries that have been flushed from TLB (Count)
system.cpu.mmu.stage2_itb.instAccesses              0                       # Inst accesses (Count)
system.cpu.mmu.stage2_itb.hits                      0                       # Total TLB (inst and data) hits (Count)
system.cpu.mmu.stage2_itb.misses                    0                       # Total TLB (inst and data) misses (Count)
system.cpu.mmu.stage2_itb.accesses                  0                       # Total TLB (inst and data) accesses (Count)
system.cpu.mmu.stage2_itb_walker.walks              0                       # Table walker walks requested (Count)
system.cpu.mmu.stage2_itb_walker.requestOrigin_Requested::Data            0                       # Table walker requests started/completed, data/inst (Count)
system.cpu.mmu.stage2_itb_walker.requestOrigin_Requested::Inst            0                       # Table walker requests started/completed, data/inst (Count)
system.cpu.mmu.stage2_itb_walker.requestOrigin_Requested::total            0                       # Table walker requests started/completed, data/inst (Count)
system.cpu.mmu.stage2_itb_walker.requestOrigin_Completed::Data            0                       # Table walker requests started/completed, data/inst (Count)
system.cpu.mmu.stage2_itb_walker.requestOrigin_Completed::Inst            0                       # Table walker requests started/completed, data/inst (Count)
system.cpu.mmu.stage2_itb_walker.requestOrigin_Completed::total            0                       # Table walker requests started/completed, data/inst (Count)
system.cpu.mmu.stage2_itb_walker.requestOrigin::total            0                       # Table walker requests started/completed, data/inst (Count)
system.cpu.mmu.stage2_itb_walker.power_state.pwrStateResidencyTicks::UNDEFINED 118764968375000                       # Cumulative time (in ticks) in various power states (Tick)
system.cpu.power_state.numTransitions               1                       # Number of power state transitions (Count)
system.cpu.power_state.pwrStateResidencyTicks::ON 118749299578000                       # Cumulative time (in ticks) in various power states (Tick)
system.cpu.power_state.pwrStateResidencyTicks::OFF  15668797000                       # Cumulative time (in ticks) in various power states (Tick)
system.cpu.thread_0.numInsts                        0                       # Number of Instructions committed (Count)
system.cpu.thread_0.numOps                          0                       # Number of Ops committed (Count)
system.cpu.thread_0.numMemRefs                      0                       # Number of Memory References (Count)
system.cpu.workload.numSyscalls                     0                       # Number of system calls (Count)
system.cpu_clk_domain.clock                      1000                       # Clock period in ticks (Tick)
system.cpu_voltage_domain.voltage                   1                       # Voltage in Volts (Volt)
system.l2.demandHits::cpu.dcache.prefetcher          488                       # number of demand (read+write) hits (Count)
system.l2.demandHits::switch_cpus.inst              1                       # number of demand (read+write) hits (Count)
system.l2.demandHits::switch_cpus.data         360934                       # number of demand (read+write) hits (Count)
system.l2.demandHits::total                    361423                       # number of demand (read+write) hits (Count)
system.l2.overallHits::cpu.dcache.prefetcher          488                       # number of overall hits (Count)
system.l2.overallHits::switch_cpus.inst             1                       # number of overall hits (Count)
system.l2.overallHits::switch_cpus.data        360934                       # number of overall hits (Count)
system.l2.overallHits::total                   361423                       # number of overall hits (Count)
system.l2.demandMisses::cpu.inst                    3                       # number of demand (read+write) misses (Count)
system.l2.demandMisses::cpu.data                    4                       # number of demand (read+write) misses (Count)
system.l2.demandMisses::cpu.dcache.prefetcher         2891                       # number of demand (read+write) misses (Count)
system.l2.demandMisses::switch_cpus.inst           86                       # number of demand (read+write) misses (Count)
system.l2.demandMisses::switch_cpus.data       143752                       # number of demand (read+write) misses (Count)
system.l2.demandMisses::total                  146736                       # number of demand (read+write) misses (Count)
system.l2.overallMisses::cpu.inst                   3                       # number of overall misses (Count)
system.l2.overallMisses::cpu.data                   4                       # number of overall misses (Count)
system.l2.overallMisses::cpu.dcache.prefetcher         2891                       # number of overall misses (Count)
system.l2.overallMisses::switch_cpus.inst           86                       # number of overall misses (Count)
system.l2.overallMisses::switch_cpus.data       143752                       # number of overall misses (Count)
system.l2.overallMisses::total                 146736                       # number of overall misses (Count)
system.l2.demandMissLatency::cpu.dcache.prefetcher    334119601                       # number of demand (read+write) miss ticks (Tick)
system.l2.demandMissLatency::switch_cpus.inst      8538000                       # number of demand (read+write) miss ticks (Tick)
system.l2.demandMissLatency::switch_cpus.data  16228941000                       # number of demand (read+write) miss ticks (Tick)
system.l2.demandMissLatency::total        16571598601                       # number of demand (read+write) miss ticks (Tick)
system.l2.overallMissLatency::cpu.dcache.prefetcher    334119601                       # number of overall miss ticks (Tick)
system.l2.overallMissLatency::switch_cpus.inst      8538000                       # number of overall miss ticks (Tick)
system.l2.overallMissLatency::switch_cpus.data  16228941000                       # number of overall miss ticks (Tick)
system.l2.overallMissLatency::total       16571598601                       # number of overall miss ticks (Tick)
system.l2.demandAccesses::cpu.inst                  3                       # number of demand (read+write) accesses (Count)
system.l2.demandAccesses::cpu.data                  4                       # number of demand (read+write) accesses (Count)
system.l2.demandAccesses::cpu.dcache.prefetcher         3379                       # number of demand (read+write) accesses (Count)
system.l2.demandAccesses::switch_cpus.inst           87                       # number of demand (read+write) accesses (Count)
system.l2.demandAccesses::switch_cpus.data       504686                       # number of demand (read+write) accesses (Count)
system.l2.demandAccesses::total                508159                       # number of demand (read+write) accesses (Count)
system.l2.overallAccesses::cpu.inst                 3                       # number of overall (read+write) accesses (Count)
system.l2.overallAccesses::cpu.data                 4                       # number of overall (read+write) accesses (Count)
system.l2.overallAccesses::cpu.dcache.prefetcher         3379                       # number of overall (read+write) accesses (Count)
system.l2.overallAccesses::switch_cpus.inst           87                       # number of overall (read+write) accesses (Count)
system.l2.overallAccesses::switch_cpus.data       504686                       # number of overall (read+write) accesses (Count)
system.l2.overallAccesses::total               508159                       # number of overall (read+write) accesses (Count)
system.l2.demandMissRate::cpu.inst                  1                       # miss rate for demand accesses (Ratio)
system.l2.demandMissRate::cpu.data                  1                       # miss rate for demand accesses (Ratio)
system.l2.demandMissRate::cpu.dcache.prefetcher     0.855579                       # miss rate for demand accesses (Ratio)
system.l2.demandMissRate::switch_cpus.inst     0.988506                       # miss rate for demand accesses (Ratio)
system.l2.demandMissRate::switch_cpus.data     0.284835                       # miss rate for demand accesses (Ratio)
system.l2.demandMissRate::total              0.288760                       # miss rate for demand accesses (Ratio)
system.l2.overallMissRate::cpu.inst                 1                       # miss rate for overall accesses (Ratio)
system.l2.overallMissRate::cpu.data                 1                       # miss rate for overall accesses (Ratio)
system.l2.overallMissRate::cpu.dcache.prefetcher     0.855579                       # miss rate for overall accesses (Ratio)
system.l2.overallMissRate::switch_cpus.inst     0.988506                       # miss rate for overall accesses (Ratio)
system.l2.overallMissRate::switch_cpus.data     0.284835                       # miss rate for overall accesses (Ratio)
system.l2.overallMissRate::total             0.288760                       # miss rate for overall accesses (Ratio)
system.l2.demandAvgMissLatency::cpu.dcache.prefetcher 115572.328260                       # average overall miss latency in ticks ((Tick/Count))
system.l2.demandAvgMissLatency::switch_cpus.inst 99279.069767                       # average overall miss latency in ticks ((Tick/Count))
system.l2.demandAvgMissLatency::switch_cpus.data 112895.410151                       # average overall miss latency in ticks ((Tick/Count))
system.l2.demandAvgMissLatency::total    112934.784927                       # average overall miss latency in ticks ((Tick/Count))
system.l2.overallAvgMissLatency::cpu.dcache.prefetcher 115572.328260                       # average overall miss latency ((Tick/Count))
system.l2.overallAvgMissLatency::switch_cpus.inst 99279.069767                       # average overall miss latency ((Tick/Count))
system.l2.overallAvgMissLatency::switch_cpus.data 112895.410151                       # average overall miss latency ((Tick/Count))
system.l2.overallAvgMissLatency::total   112934.784927                       # average overall miss latency ((Tick/Count))
system.l2.blockedCycles::no_mshrs                   0                       # number of cycles access was blocked (Cycle)
system.l2.blockedCycles::no_targets                 0                       # number of cycles access was blocked (Cycle)
system.l2.blockedCauses::no_mshrs                   0                       # number of times access was blocked (Count)
system.l2.blockedCauses::no_targets                 0                       # number of times access was blocked (Count)
system.l2.avgBlocked::no_mshrs                    nan                       # average number of cycles each access was blocked ((Cycle/Count))
system.l2.avgBlocked::no_targets                  nan                       # average number of cycles each access was blocked ((Cycle/Count))
system.l2.writebacks::writebacks                81831                       # number of writebacks (Count)
system.l2.writebacks::total                     81831                       # number of writebacks (Count)
system.l2.demandMshrMisses::cpu.dcache.prefetcher         2891                       # number of demand (read+write) MSHR misses (Count)
system.l2.demandMshrMisses::switch_cpus.inst           86                       # number of demand (read+write) MSHR misses (Count)
system.l2.demandMshrMisses::switch_cpus.data       143752                       # number of demand (read+write) MSHR misses (Count)
system.l2.demandMshrMisses::total              146729                       # number of demand (read+write) MSHR misses (Count)
system.l2.overallMshrMisses::cpu.dcache.prefetcher         2891                       # number of overall MSHR misses (Count)
system.l2.overallMshrMisses::switch_cpus.inst           86                       # number of overall MSHR misses (Count)
system.l2.overallMshrMisses::switch_cpus.data       143752                       # number of overall MSHR misses (Count)
system.l2.overallMshrMisses::total             146729                       # number of overall MSHR misses (Count)
system.l2.demandMshrMissLatency::cpu.dcache.prefetcher    276299601                       # number of demand (read+write) MSHR miss ticks (Tick)
system.l2.demandMshrMissLatency::switch_cpus.inst      6818000                       # number of demand (read+write) MSHR miss ticks (Tick)
system.l2.demandMshrMissLatency::switch_cpus.data  13353901000                       # number of demand (read+write) MSHR miss ticks (Tick)
system.l2.demandMshrMissLatency::total    13637018601                       # number of demand (read+write) MSHR miss ticks (Tick)
system.l2.overallMshrMissLatency::cpu.dcache.prefetcher    276299601                       # number of overall MSHR miss ticks (Tick)
system.l2.overallMshrMissLatency::switch_cpus.inst      6818000                       # number of overall MSHR miss ticks (Tick)
system.l2.overallMshrMissLatency::switch_cpus.data  13353901000                       # number of overall MSHR miss ticks (Tick)
system.l2.overallMshrMissLatency::total   13637018601                       # number of overall MSHR miss ticks (Tick)
system.l2.demandMshrMissRate::cpu.dcache.prefetcher     0.855579                       # mshr miss ratio for demand accesses (Ratio)
system.l2.demandMshrMissRate::switch_cpus.inst     0.988506                       # mshr miss ratio for demand accesses (Ratio)
system.l2.demandMshrMissRate::switch_cpus.data     0.284835                       # mshr miss ratio for demand accesses (Ratio)
system.l2.demandMshrMissRate::total          0.288746                       # mshr miss ratio for demand accesses (Ratio)
system.l2.overallMshrMissRate::cpu.dcache.prefetcher     0.855579                       # mshr miss ratio for overall accesses (Ratio)
system.l2.overallMshrMissRate::switch_cpus.inst     0.988506                       # mshr miss ratio for overall accesses (Ratio)
system.l2.overallMshrMissRate::switch_cpus.data     0.284835                       # mshr miss ratio for overall accesses (Ratio)
system.l2.overallMshrMissRate::total         0.288746                       # mshr miss ratio for overall accesses (Ratio)
system.l2.demandAvgMshrMissLatency::cpu.dcache.prefetcher 95572.328260                       # average overall mshr miss latency ((Tick/Count))
system.l2.demandAvgMshrMissLatency::switch_cpus.inst 79279.069767                       # average overall mshr miss latency ((Tick/Count))
system.l2.demandAvgMshrMissLatency::switch_cpus.data 92895.410151                       # average overall mshr miss latency ((Tick/Count))
system.l2.demandAvgMshrMissLatency::total 92940.172706                       # average overall mshr miss latency ((Tick/Count))
system.l2.overallAvgMshrMissLatency::cpu.dcache.prefetcher 95572.328260                       # average overall mshr miss latency ((Tick/Count))
system.l2.overallAvgMshrMissLatency::switch_cpus.inst 79279.069767                       # average overall mshr miss latency ((Tick/Count))
system.l2.overallAvgMshrMissLatency::switch_cpus.data 92895.410151                       # average overall mshr miss latency ((Tick/Count))
system.l2.overallAvgMshrMissLatency::total 92940.172706                       # average overall mshr miss latency ((Tick/Count))
system.l2.replacements                         130463                       # number of replacements (Count)
system.l2.ReadCleanReq.hits::switch_cpus.inst            1                       # number of ReadCleanReq hits (Count)
system.l2.ReadCleanReq.hits::total                  1                       # number of ReadCleanReq hits (Count)
system.l2.ReadCleanReq.misses::cpu.inst             3                       # number of ReadCleanReq misses (Count)
system.l2.ReadCleanReq.misses::switch_cpus.inst           86                       # number of ReadCleanReq misses (Count)
system.l2.ReadCleanReq.misses::total               89                       # number of ReadCleanReq misses (Count)
system.l2.ReadCleanReq.missLatency::switch_cpus.inst      8538000                       # number of ReadCleanReq miss ticks (Tick)
system.l2.ReadCleanReq.missLatency::total      8538000                       # number of ReadCleanReq miss ticks (Tick)
system.l2.ReadCleanReq.accesses::cpu.inst            3                       # number of ReadCleanReq accesses(hits+misses) (Count)
[...]
system.switch_cpus.mmu.dtb_walker.requestOrigin_Completed::total            0                       # Table walker requests started/completed, data/inst (Count)
system.switch_cpus.mmu.dtb_walker.requestOrigin::total            0                       # Table walker requests started/completed, data/inst (Count)
system.switch_cpus.mmu.dtb_walker.power_state.pwrStateResidencyTicks::UNDEFINED 228627577000                       # Cumulative time (in ticks) in various power states (Tick)
system.switch_cpus.mmu.itb.instHits                 0                       # Inst hits (Count)
system.switch_cpus.mmu.itb.instMisses               0                       # Inst misses (Count)
system.switch_cpus.mmu.itb.inserts                  0                       # Number of times an entry is inserted into the TLB (Count)
system.switch_cpus.mmu.itb.flushTlb                 4                       # Number of times complete TLB was flushed (Count)
system.switch_cpus.mmu.itb.flushTlbMva              0                       # Number of times TLB was flushed by MVA (Count)
system.switch_cpus.mmu.itb.flushTlbMvaAsid            0                       # Number of times TLB was flushed by MVA & ASID (Count)
system.switch_cpus.mmu.itb.flushTlbAsid             0                       # Number of times TLB was flushed by ASID (Count)
system.switch_cpus.mmu.itb.flushedEntries            0                       # Number of entries that have been flushed from TLB (Count)
system.switch_cpus.mmu.itb.instAccesses             0                       # Inst accesses (Count)
system.switch_cpus.mmu.itb.hits                     0                       # Total TLB (inst and data) hits (Count)
system.switch_cpus.mmu.itb.misses                   0                       # Total TLB (inst and data) misses (Count)
system.switch_cpus.mmu.itb.accesses                 0                       # Total TLB (inst and data) accesses (Count)
system.switch_cpus.mmu.itb_walker.walks             0                       # Table walker walks requested (Count)
system.switch_cpus.mmu.itb_walker.requestOrigin_Requested::Data            0                       # Table walker requests started/completed, data/inst (Count)
system.switch_cpus.mmu.itb_walker.requestOrigin_Requested::Inst            0                       # Table walker requests started/completed, data/inst (Count)
system.switch_cpus.mmu.itb_walker.requestOrigin_Requested::total            0                       # Table walker requests started/completed, data/inst (Count)
system.switch_cpus.mmu.itb_walker.requestOrigin_Completed::Data            0                       # Table walker requests started/completed, data/inst (Count)
system.switch_cpus.mmu.itb_walker.requestOrigin_Completed::Inst            0                       # Table walker requests started/completed, data/inst (Count)
system.switch_cpus.mmu.itb_walker.requestOrigin_Completed::total            0                       # Table walker requests started/completed, data/inst (Count)
system.switch_cpus.mmu.itb_walker.requestOrigin::total            0                       # Table walker requests started/completed, data/inst (Count)
system.switch_cpus.mmu.itb_walker.power_state.pwrStateResidencyTicks::UNDEFINED 228627577000                       # Cumulative time (in ticks) in various power states (Tick)
system.switch_cpus.mmu.l2_shared.instHits            0                       # Inst hits (Count)
system.switch_cpus.mmu.l2_shared.instMisses            0                       # Inst misses (Count)
system.switch_cpus.mmu.l2_shared.inserts            0                       # Number of times an entry is inserted into the TLB (Count)
system.switch_cpus.mmu.l2_shared.flushTlb            4                       # Number of times complete TLB was flushed (Count)
system.switch_cpus.mmu.l2_shared.flushTlbMva            0                       # Number of times TLB was flushed by MVA (Count)
system.switch_cpus.mmu.l2_shared.flushTlbMvaAsid            0                       # Number of times TLB was flushed by MVA & ASID (Count)
system.switch_cpus.mmu.l2_shared.flushTlbAsid            0                       # Number of times TLB was flushed by ASID (Count)
system.switch_cpus.mmu.l2_shared.flushedEntries            0                       # Number of entries that have been flushed from TLB (Count)
system.switch_cpus.mmu.l2_shared.instAccesses            0                       # Inst accesses (Count)
system.switch_cpus.mmu.l2_shared.hits               0                       # Total TLB (inst and data) hits (Count)
system.switch_cpus.mmu.l2_shared.misses             0                       # Total TLB (inst and data) misses (Count)
system.switch_cpus.mmu.l2_shared.accesses            0                       # Total TLB (inst and data) accesses (Count)
system.switch_cpus.mmu.stage2_dtb.readHits            0                       # Read hits (Count)
system.switch_cpus.mmu.stage2_dtb.readMisses            0                       # Read misses (Count)
system.switch_cpus.mmu.stage2_dtb.writeHits            0                       # Write hits (Count)
system.switch_cpus.mmu.stage2_dtb.writeMisses            0                       # Write misses (Count)
system.switch_cpus.mmu.stage2_dtb.inserts            0                       # Number of times an entry is inserted into the TLB (Count)
system.switch_cpus.mmu.stage2_dtb.flushTlb            4                       # Number of times complete TLB was flushed (Count)
system.switch_cpus.mmu.stage2_dtb.flushTlbMva            0                       # Number of times TLB was flushed by MVA (Count)
system.switch_cpus.mmu.stage2_dtb.flushTlbMvaAsid            0                       # Number of times TLB was flushed by MVA & ASID (Count)
system.switch_cpus.mmu.stage2_dtb.flushTlbAsid            0                       # Number of times TLB was flushed by ASID (Count)
system.switch_cpus.mmu.stage2_dtb.flushedEntries            0                       # Number of entries that have been flushed from TLB (Count)
system.switch_cpus.mmu.stage2_dtb.readAccesses            0                       # Read accesses (Count)
system.switch_cpus.mmu.stage2_dtb.writeAccesses            0                       # Write accesses (Count)
system.switch_cpus.mmu.stage2_dtb.hits              0                       # Total TLB (inst and data) hits (Count)
system.switch_cpus.mmu.stage2_dtb.misses            0                       # Total TLB (inst and data) misses (Count)
system.switch_cpus.mmu.stage2_dtb.accesses            0                       # Total TLB (inst and data) accesses (Count)
system.switch_cpus.mmu.stage2_dtb_walker.walks            0                       # Table walker walks requested (Count)
system.switch_cpus.mmu.stage2_dtb_walker.requestOrigin_Requested::Data            0                       # Table walker requests started/completed, data/inst (Count)
system.switch_cpus.mmu.stage2_dtb_walker.requestOrigin_Requested::Inst            0                       # Table walker requests started/completed, data/inst (Count)
system.switch_cpus.mmu.stage2_dtb_walker.requestOrigin_Requested::total            0                       # Table walker requests started/completed, data/inst (Count)
system.switch_cpus.mmu.stage2_dtb_walker.requestOrigin_Completed::Data            0                       # Table walker requests started/completed, data/inst (Count)
system.switch_cpus.mmu.stage2_dtb_walker.requestOrigin_Completed::Inst            0                       # Table walker requests started/completed, data/inst (Count)
system.switch_cpus.mmu.stage2_dtb_walker.requestOrigin_Completed::total            0                       # Table walker requests started/completed, data/inst (Count)
system.switch_cpus.mmu.stage2_dtb_walker.requestOrigin::total            0                       # Table walker requests started/completed, data/inst (Count)
system.switch_cpus.mmu.stage2_dtb_walker.power_state.pwrStateResidencyTicks::UNDEFINED 228627577000                       # Cumulative time (in ticks) in various power states (Tick)
system.switch_cpus.mmu.stage2_itb.instHits            0                       # Inst hits (Count)
system.switch_cpus.mmu.stage2_itb.instMisses            0                       # Inst misses (Count)
system.switch_cpus.mmu.stage2_itb.inserts            0                       # Number of times an entry is inserted into the TLB (Count)
system.switch_cpus.mmu.stage2_itb.flushTlb            4                       # Number of times complete TLB was flushed (Count)
system.switch_cpus.mmu.stage2_itb.flushTlbMva            0                       # Number of times TLB was flushed by MVA (Count)
system.switch_cpus.mmu.stage2_itb.flushTlbMvaAsid            0                       # Number of times TLB was flushed by MVA & ASID (Count)
system.switch_cpus.mmu.stage2_itb.flushTlbAsid            0                       # Number of times TLB was flushed by ASID (Count)
system.switch_cpus.mmu.stage2_itb.flushedEntries            0                       # Number of entries that have been flushed from TLB (Count)
system.switch_cpus.mmu.stage2_itb.instAccesses            0                       # Inst accesses (Count)
system.switch_cpus.mmu.stage2_itb.hits              0                       # Total TLB (inst and data) hits (Count)
system.switch_cpus.mmu.stage2_itb.misses            0                       # Total TLB (inst and data) misses (Count)
system.switch_cpus.mmu.stage2_itb.accesses            0                       # Total TLB (inst and data) accesses (Count)
system.switch_cpus.mmu.stage2_itb_walker.walks            0                       # Table walker walks requested (Count)
system.switch_cpus.mmu.stage2_itb_walker.requestOrigin_Requested::Data            0                       # Table walker requests started/completed, data/inst (Count)
system.switch_cpus.mmu.stage2_itb_walker.requestOrigin_Requested::Inst            0                       # Table walker requests started/completed, data/inst (Count)
system.switch_cpus.mmu.stage2_itb_walker.requestOrigin_Requested::total            0                       # Table walker requests started/completed, data/inst (Count)
system.switch_cpus.mmu.stage2_itb_walker.requestOrigin_Completed::Data            0                       # Table walker requests started/completed, data/inst (Count)
system.switch_cpus.mmu.stage2_itb_walker.requestOrigin_Completed::Inst            0                       # Table walker requests started/completed, data/inst (Count)
system.switch_cpus.mmu.stage2_itb_walker.requestOrigin_Completed::total            0                       # Table walker requests started/completed, data/inst (Count)
system.switch_cpus.mmu.stage2_itb_walker.requestOrigin::total            0                       # Table walker requests started/completed, data/inst (Count)
system.switch_cpus.mmu.stage2_itb_walker.power_state.pwrStateResidencyTicks::UNDEFINED 228627577000                       # Cumulative time (in ticks) in various power states (Tick)
system.switch_cpus.power_state.pwrStateResidencyTicks::OFF 228627577000                       # Cumulative time (in ticks) in various power states (Tick)
system.switch_cpus.rename.squashCycles        4000030                       # Number of cycles rename is squashing (Cycle)
system.switch_cpus.rename.idleCycles         52331321                       # Number of cycles rename is idle (Cycle)
system.switch_cpus.rename.blockCycles        45690693                       # Number of cycles rename is blocking (Cycle)
system.switch_cpus.rename.serializeStallCycles      4058168                       # count of cycles rename stalled for serializing inst (Cycle)
system.switch_cpus.rename.runCycles          74039039                       # Number of cycles rename is running (Cycle)
system.switch_cpus.rename.unblockCycles      48500334                       # Number of cycles rename is unblocking (Cycle)
system.switch_cpus.rename.renamedInsts      509765861                       # Number of instructions processed by rename (Count)
system.switch_cpus.rename.ROBFullEvents         25777                       # Number of times rename has blocked due to ROB full (Count)
system.switch_cpus.rename.IQFullEvents       25991049                       # Number of times rename has blocked due to IQ full (Count)
system.switch_cpus.rename.LQFullEvents       10841276                       # Number of times rename has blocked due to LQ full (Count)
system.switch_cpus.rename.SQFullEvents        9930076                       # Number of times rename has blocked due to SQ full (Count)
system.switch_cpus.rename.renamedOperands    636873199                       # Number of destination operands rename has renamed (Count)
system.switch_cpus.rename.lookups          2380958225                       # Number of register rename lookups that rename has made (Count)
system.switch_cpus.rename.intLookups        664509232                       # Number of integer rename lookups (Count)
system.switch_cpus.rename.vecLookups           185537                       # Number of vector rename lookups (Count)
system.switch_cpus.rename.committedMaps     447325537                       # Number of HB maps that are committed (Count)
system.switch_cpus.rename.undoneMaps        189547655                       # Number of HB maps that are undone due to squashing (Count)
system.switch_cpus.rename.serializing           64089                       # count of serializing insts renamed (Count)
system.switch_cpus.rename.tempSerializing        64104                       # count of temporary serializing insts renamed (Count)
system.switch_cpus.rename.skidInsts          81070339                       # count of insts added to the skid buffer (Count)
system.switch_cpus.rob.reads                673825088                       # The number of ROB reads (Count)
system.switch_cpus.rob.writes               995424732                       # The number of ROB writes (Count)
system.switch_cpus.thread_0.numInsts        300000003                       # Number of Instructions committed (Count)
system.switch_cpus.thread_0.numOps          360786691                       # Number of Ops committed (Count)
system.switch_cpus.thread_0.numMemRefs              0                       # Number of Memory References (Count)
system.tol2bus.transDist::ReadResp            1587484                       # Transaction distribution (Count)
system.tol2bus.transDist::WritebackDirty      2396720                       # Transaction distribution (Count)
system.tol2bus.transDist::CleanEvict           806896                       # Transaction distribution (Count)
system.tol2bus.transDist::ReadExReq           1018861                       # Transaction distribution (Count)
system.tol2bus.transDist::ReadExResp          1018861                       # Transaction distribution (Count)
system.tol2bus.transDist::ReadCleanReq            177                       # Transaction distribution (Count)
system.tol2bus.transDist::ReadSharedReq       1587307                       # Transaction distribution (Count)
system.tol2bus.transDist::InvalidateReq            86                       # Transaction distribution (Count)
system.tol2bus.transDist::InvalidateResp           86                       # Transaction distribution (Count)
system.tol2bus.pktCount_system.cpu.icache.mem_side_port::system.l2.cpu_side_port          354                       # Packet count per connected requestor and responder (Count)
system.tol2bus.pktCount_system.cpu.dcache.mem_side_port::system.l2.cpu_side_port      7818762                       # Packet count per connected requestor and responder (Count)
system.tol2bus.pktCount::total                7819116                       # Packet count per connected requestor and responder (Count)
system.tol2bus.pktSize_system.cpu.icache.mem_side_port::system.l2.cpu_side_port        11328                       # Cumulative packet size per connected requestor and responder (Byte)
system.tol2bus.pktSize_system.cpu.dcache.mem_side_port::system.l2.cpu_side_port    294201792                       # Cumulative packet size per connected requestor and responder (Byte)
system.tol2bus.pktSize::total               294213120                       # Cumulative packet size per connected requestor and responder (Byte)
system.tol2bus.snoops                          597362                       # Total snoops (Count)
system.tol2bus.snoopTraffic                  25983040                       # Total snoop traffic (Byte)
system.tol2bus.snoopFanout::samples           3203793                       # Request fanout histogram (Count)
system.tol2bus.snoopFanout::mean             0.000131                       # Request fanout histogram (Count)
system.tol2bus.snoopFanout::stdev            0.011463                       # Request fanout histogram (Count)
system.tol2bus.snoopFanout::underflows              0      0.00%      0.00% # Request fanout histogram (Count)
system.tol2bus.snoopFanout::0                 3203372     99.99%     99.99% # Request fanout histogram (Count)
system.tol2bus.snoopFanout::1                     421      0.01%    100.00% # Request fanout histogram (Count)
system.tol2bus.snoopFanout::2                       0      0.00%    100.00% # Request fanout histogram (Count)
system.tol2bus.snoopFanout::overflows               0      0.00%    100.00% # Request fanout histogram (Count)
system.tol2bus.snoopFanout::min_value               0                       # Request fanout histogram (Count)
system.tol2bus.snoopFanout::max_value               1                       # Request fanout histogram (Count)
system.tol2bus.snoopFanout::total             3203793                       # Request fanout histogram (Count)
system.tol2bus.power_state.pwrStateResidencyTicks::UNDEFINED 228627577000                       # Cumulative time (in ticks) in various power states (Tick)
system.tol2bus.reqLayer0.occupancy         9205050795                       # Layer occupancy (ticks) (Tick)
system.tol2bus.reqLayer0.utilization              0.0                       # Layer utilization (Ratio)
system.tol2bus.respLayer0.occupancy            532998                       # Layer occupancy (ticks) (Tick)
system.tol2bus.respLayer0.utilization             0.0                       # Layer utilization (Ratio)
system.tol2bus.respLayer1.occupancy        7818590000                       # Layer occupancy (ticks) (Tick)
system.tol2bus.respLayer1.utilization             0.0                       # Layer utilization (Ratio)
system.tol2bus.snoop_filter.totRequests       5212685                       # Total number of requests made to the snoop filter. (Count)
system.tol2bus.snoop_filter.hitSingleRequests      2606254                       # Number of requests hitting in the snoop filter with a single holder of the requested data. (Count)
system.tol2bus.snoop_filter.hitMultiRequests          213                       # Number of requests hitting in the snoop filter with multiple (>1) holders of the requested data. (Count)
system.tol2bus.snoop_filter.totSnoops             208                       # Total number of snoops made to the snoop filter. (Count)
system.tol2bus.snoop_filter.hitSingleSnoops          208                       # Number of snoops hitting in the snoop filter with a single holder of the requested data. (Count)
system.tol2bus.snoop_filter.hitMultiSnoops            0                       # Number of snoops hitting in the snoop filter with multiple (>1) holders of the requested data. (Count)
system.voltage_domain.voltage                       1                       # Voltage in Volts (Volt)
system.workload.inst.arm                            0                       # number of arm instructions executed (Count)
system.workload.inst.quiesce                        0                       # number of quiesce instructions executed (Count)

---------- End Simulation Statistics   ----------
