Global frequency set at 1000000000000 ticks per second
 Register [printBranch()] ExitCallback !!!!!!! 
gem5 Simulator System.  https://www.gem5.org
gem5 is copyrighted software; use the --copyright option for details.

gem5 version 22.0.0.2
gem5 compiled Sep  7 2022 00:42:18
gem5 started Sep  7 2022 06:10:22
gem5 executing on a100, pid 2821142
command line: /data/zxf/gem5/gem5-prof/build/ARM/gem5.fast --outdir=/data/zxf/checkpoint/spec2006/445.gobmk/prof/gobmk_ckp_14 /data/zxf/gem5/gem5-prof/configs/example/se.py --cpu-type O3CPU --cpu-clock 1GHz --num-cpu 1 --caches --l2cache --l1i_size 32kB --l1d_size 32kB --l2_size 1MB --l1i_assoc 8 --l1d_assoc 8 --l2_assoc 16 --cacheline_size 64 --mem-type DDR3_2133_8x8 --mem-size 16GB --l1d-hwp-type=BOPPrefetcher --restore-simpoint-checkpoint -r 14 --checkpoint-dir /data/zxf/checkpoint/spec2006/445.gobmk/ckpt -i 13x13.tst -c gobmk_base.gcc41-64bit -o '--quiet --mode gtp'

info: Standard input is not a terminal, disabling listeners.
Resuming from /data/zxf/checkpoint/spec2006/445.gobmk/ckpt/cpt.simpoint_13_inst_266090000000_weight_0.071903_interval_300000000_warmup_10000000
Resuming from SimPoint #13, start_inst:266090000000, weight:0.071903, interval:300000000, warmup:10000000
Switch at curTick count:10000
Switched CPUS @ tick 180135992770500
[(<m5.objects.ArmCPU.ArmAtomicSimpleCPU object at 0x7fb440c55bb0>, <m5.objects.ArmCPU.ArmO3CPU object at 0x7fb440c6ee20>)]
switching cpus



+++++++++++++++++++++++++zxf print simpoint+++++++++++++++++++++++++++
Warmed up! Dumping and resetting stats!


=============start sim!!!!!!=============
PC:41564     Total:2695      MisBP:0   MisRate:0.00%    MPKI:0.00
PC:37238     Total:70934      MisBP:0   MisRate:0.00%    MPKI:0.00
PC:74b9a     Total:42      MisBP:0   MisRate:0.00%    MPKI:0.00
PC:3724c     Total:252504      MisBP:0   MisRate:0.00%    MPKI:0.00
PC:74bae     Total:42      MisBP:0   MisRate:0.00%    MPKI:0.00
PC:4146e     Total:5695      MisBP:0   MisRate:0.00%    MPKI:0.00
PC:41500     Total:5834      MisBP:0   MisRate:0.00%    MPKI:0.00
PC:4150c     Total:5834      MisBP:0   MisRate:0.00%    MPKI:0.00
PC:41dfa     Total:313      MisBP:0   MisRate:0.00%    MPKI:0.00
PC:18420     Total:2526      MisBP:0   MisRate:0.00%    MPKI:0.00
PC:37334     Total:26      MisBP:0   MisRate:0.00%    MPKI:0.00
PC:36a46     Total:59      MisBP:0   MisRate:0.00%    MPKI:0.00
PC:60420     Total:1      MisBP:0   MisRate:0.00%    MPKI:0.00
PC:3733e     Total:16      MisBP:0   MisRate:0.00%    MPKI:0.00
PC:414de     Total:734      MisBP:0   MisRate:0.00%    MPKI:0.00
PC:41576     Total:2429      MisBP:0   MisRate:0.00%    MPKI:0.00
PC:41e64     Total:654      MisBP:0   MisRate:0.00%    MPKI:0.00
PC:1848a     Total:10      MisBP:0   MisRate:0.00%    MPKI:0.00
PC:41592     Total:2265      MisBP:0   MisRate:0.00%    MPKI:0.00
PC:415a4     Total:1809      MisBP:0   MisRate:0.00%    MPKI:0.00
PC:42d26     Total:52      MisBP:0   MisRate:0.00%    MPKI:0.00
PC:1934c     Total:228395      MisBP:0   MisRate:0.00%    MPKI:0.00
PC:18a5e     Total:1875      MisBP:0   MisRate:0.00%    MPKI:0.00
PC:42438     Total:21      MisBP:0   MisRate:0.00%    MPKI:0.00
PC:2dbc2     Total:13      MisBP:0   MisRate:0.00%    MPKI:0.00
PC:41bd4     Total:1939      MisBP:0   MisRate:0.00%    MPKI:0.00
PC:181fe     Total:85      MisBP:0   MisRate:0.00%    MPKI:0.00
PC:99332     Total:25      MisBP:0   MisRate:0.00%    MPKI:0.00
PC:1c57e     Total:3676      MisBP:0   MisRate:0.00%    MPKI:0.00
PC:1c582     Total:3676      MisBP:0   MisRate:0.00%    MPKI:0.00
PC:1c584     Total:3676      MisBP:0   MisRate:0.00%    MPKI:0.00
PC:1c588     Total:3675      MisBP:0   MisRate:0.00%    MPKI:0.00
PC:1c58c     Total:3675      MisBP:0   MisRate:0.00%    MPKI:0.00
PC:1c58e     Total:3675      MisBP:0   MisRate:0.00%    MPKI:0.00
PC:1c590     Total:3664      MisBP:0   MisRate:0.00%    MPKI:0.00
PC:1c592     Total:3663      MisBP:0   MisRate:0.00%    MPKI:0.00
PC:1c596     Total:3354      MisBP:0   MisRate:0.00%    MPKI:0.00
PC:1c59a     Total:3353      MisBP:0   MisRate:0.00%    MPKI:0.00
PC:1c59c     Total:3353      MisBP:0   MisRate:0.00%    MPKI:0.00
PC:1c5a0     Total:23      MisBP:0   MisRate:0.00%    MPKI:0.00
PC:41bd8     Total:1939      MisBP:0   MisRate:0.00%    MPKI:0.00
PC:1c5a4     Total:23      MisBP:0   MisRate:0.00%    MPKI:0.00
PC:1c5a6     Total:23      MisBP:0   MisRate:0.00%    MPKI:0.00
PC:1c5aa     Total:23      MisBP:0   MisRate:0.00%    MPKI:0.00
PC:9933a     Total:25      MisBP:0   MisRate:0.00%    MPKI:0.00
PC:1c5ac     Total:23      MisBP:0   MisRate:0.00%    MPKI:0.00
PC:1c5b2     Total:22      MisBP:0   MisRate:0.00%    MPKI:0.00
PC:1c5b6     Total:22      MisBP:0   MisRate:0.00%    MPKI:0.00
PC:1c5ba     Total:22      MisBP:0   MisRate:0.00%    MPKI:0.00
PC:9934a     Total:24      MisBP:0   MisRate:0.00%    MPKI:0.00
PC:1c5bc     Total:22      MisBP:0   MisRate:0.00%    MPKI:0.00
PC:1c5be     Total:22      MisBP:0   MisRate:0.00%    MPKI:0.00
PC:414d6     Total:734      MisBP:0   MisRate:0.00%    MPKI:0.00
PC:2dea2     Total:1      MisBP:0   MisRate:0.00%    MPKI:0.00
PC:16662     Total:23679      MisBP:0   MisRate:0.00%    MPKI:0.00
PC:4003c     Total:917      MisBP:0   MisRate:0.00%    MPKI:0.00
PC:2530c     Total:5978      MisBP:0   MisRate:0.00%    MPKI:0.00
PC:8bd5e     Total:496      MisBP:0   MisRate:0.00%    MPKI:0.00
PC:25310     Total:5978      MisBP:0   MisRate:0.00%    MPKI:0.00
PC:25314     Total:5978      MisBP:0   MisRate:0.00%    MPKI:0.00
PC:25318     Total:334      MisBP:0   MisRate:0.00%    MPKI:0.00
PC:1957e     Total:7942      MisBP:0   MisRate:0.00%    MPKI:0.00
PC:5189c     Total:2244      MisBP:0   MisRate:0.00%    MPKI:0.00
PC:334bc     Total:6      MisBP:0   MisRate:0.00%    MPKI:0.00
PC:184c8     Total:3      MisBP:0   MisRate:0.00%    MPKI:0.00
PC:41ea2     Total:365      MisBP:0   MisRate:0.00%    MPKI:0.00
PC:184cc     Total:3      MisBP:0   MisRate:0.00%    MPKI:0.00
PC:72ae6     Total:12      MisBP:0   MisRate:0.00%    MPKI:0.00
PC:195f2     Total:5139      MisBP:0   MisRate:0.00%    MPKI:0.00
PC:195f6     Total:4924      MisBP:0   MisRate:0.00%    MPKI:0.00
PC:184a6     Total:9      MisBP:0   MisRate:0.00%    MPKI:0.00
PC:41e80     Total:427      MisBP:0   MisRate:0.00%    MPKI:0.00
PC:42fe0     Total:105      MisBP:0   MisRate:0.00%    MPKI:0.00
PC:19606     Total:4062      MisBP:0   MisRate:0.00%    MPKI:0.00
PC:41e8e     Total:947      MisBP:0   MisRate:0.00%    MPKI:0.00
PC:42fe4     Total:96      MisBP:0   MisRate:0.00%    MPKI:0.00
PC:1960a     Total:4062      MisBP:0   MisRate:0.00%    MPKI:0.00
PC:19644     Total:58207      MisBP:0   MisRate:0.00%    MPKI:0.00
PC:2deba     Total:1      MisBP:0   MisRate:0.00%    MPKI:0.00
PC:2dec2     Total:2      MisBP:0   MisRate:0.00%    MPKI:0.00
PC:411ca     Total:31813      MisBP:0   MisRate:0.00%    MPKI:0.00
PC:415d0     Total:2473      MisBP:0   MisRate:0.00%    MPKI:0.00
PC:18d60     Total:99658      MisBP:0   MisRate:0.00%    MPKI:0.00
PC:373ee     Total:109      MisBP:0   MisRate:0.00%    MPKI:0.00
PC:41610     Total:2050      MisBP:0   MisRate:0.00%    MPKI:0.00
PC:2d1fe     Total:3859      MisBP:0   MisRate:0.00%    MPKI:0.00
PC:2d23e     Total:3723      MisBP:0   MisRate:0.00%    MPKI:0.00
PC:2d244     Total:3409      MisBP:0   MisRate:0.00%    MPKI:0.00
PC:2d24a     Total:3409      MisBP:0   MisRate:0.00%    MPKI:0.00
PC:2d254     Total:1449      MisBP:0   MisRate:0.00%    MPKI:0.00
PC:18e20     Total:36532      MisBP:0   MisRate:0.00%    MPKI:0.00
PC:416a8     Total:8286      MisBP:0   MisRate:0.00%    MPKI:0.00
PC:36f88     Total:242      MisBP:0   MisRate:0.00%    MPKI:0.00
PC:74bd6     Total:14      MisBP:0   MisRate:0.00%    MPKI:0.00
PC:36fa8     Total:151      MisBP:0   MisRate:0.00%    MPKI:0.00
PC:36ff0     Total:27      MisBP:0   MisRate:0.00%    MPKI:0.00
PC:1f706     Total:745      MisBP:0   MisRate:0.00%    MPKI:0.00
PC:72aba     Total:11      MisBP:0   MisRate:0.00%    MPKI:0.00
PC:1f70a     Total:745      MisBP:0   MisRate:0.00%    MPKI:0.00
PC:72abe     Total:11      MisBP:0   MisRate:0.00%    MPKI:0.00
PC:6ab40     Total:3      MisBP:0   MisRate:0.00%    MPKI:0.00
PC:1778c     Total:1361      MisBP:0   MisRate:0.00%    MPKI:0.00
PC:1f722     Total:265      MisBP:0   MisRate:0.00%    MPKI:0.00
PC:72ad6     Total:11      MisBP:0   MisRate:0.00%    MPKI:0.00
PC:4002c     Total:4803      MisBP:0   MisRate:0.00%    MPKI:0.00
PC:1f732     Total:172      MisBP:0   MisRate:0.00%    MPKI:0.00
PC:16ad0     Total:5471      MisBP:0   MisRate:0.00%    MPKI:0.00
PC:40484     Total:2827      MisBP:0   MisRate:0.00%    MPKI:0.00
PC:16aaa     Total:15944      MisBP:0   MisRate:0.00%    MPKI:0.00
PC:4048a     Total:2827      MisBP:0   MisRate:0.00%    MPKI:0.00
PC:16ab0     Total:15397      MisBP:0   MisRate:0.00%    MPKI:0.00
PC:3f340     Total:510      MisBP:0   MisRate:0.00%    MPKI:0.00
PC:4049a     Total:5795      MisBP:0   MisRate:0.00%    MPKI:0.00
PC:16ac0     Total:5472      MisBP:0   MisRate:0.00%    MPKI:0.00
PC:16ac4     Total:5472      MisBP:0   MisRate:0.00%    MPKI:0.00
PC:404a2     Total:6283      MisBP:0   MisRate:0.00%    MPKI:0.00
PC:16ac8     Total:5472      MisBP:0   MisRate:0.00%    MPKI:0.00
PC:1597e     Total:172993      MisBP:0   MisRate:0.00%    MPKI:0.00
PC:3f358     Total:731      MisBP:0   MisRate:0.00%    MPKI:0.00
PC:404aa     Total:6285      MisBP:0   MisRate:0.00%    MPKI:0.00
PC:7cc80     Total:1      MisBP:0   MisRate:0.00%    MPKI:0.00
PC:404b4     Total:5699      MisBP:0   MisRate:0.00%    MPKI:0.00
PC:16ada     Total:5344      MisBP:0   MisRate:0.00%    MPKI:0.00
PC:404b8     Total:5699      MisBP:0   MisRate:0.00%    MPKI:0.00
PC:16ade     Total:5344      MisBP:0   MisRate:0.00%    MPKI:0.00
PC:16ae2     Total:5344      MisBP:0   MisRate:0.00%    MPKI:0.00
PC:15996     Total:173004      MisBP:0   MisRate:0.00%    MPKI:0.00
PC:3f370     Total:390      MisBP:0   MisRate:0.00%    MPKI:0.00
PC:404c2     Total:3036      MisBP:0   MisRate:0.00%    MPKI:0.00
PC:16ae8     Total:5841      MisBP:0   MisRate:0.00%    MPKI:0.00
PC:159a0     Total:337438      MisBP:0   MisRate:0.00%    MPKI:0.00
PC:3f37a     Total:1      MisBP:0   MisRate:0.00%    MPKI:0.00
PC:404cc     Total:2245      MisBP:0   MisRate:0.00%    MPKI:0.00
PC:2fe40     Total:112      MisBP:0   MisRate:0.00%    MPKI:0.00
PC:44ace     Total:24      MisBP:0   MisRate:0.00%    MPKI:0.00
PC:831da     Total:4      MisBP:0   MisRate:0.00%    MPKI:0.00
PC:2fe2c     Total:116      MisBP:0   MisRate:0.00%    MPKI:0.00
PC:831e2     Total:4      MisBP:0   MisRate:0.00%    MPKI:0.00
PC:2fe2e     Total:116      MisBP:0   MisRate:0.00%    MPKI:0.00
PC:831e6     Total:4      MisBP:0   MisRate:0.00%    MPKI:0.00
PC:2fe32     Total:116      MisBP:0   MisRate:0.00%    MPKI:0.00
PC:831ea     Total:4      MisBP:0   MisRate:0.00%    MPKI:0.00
PC:2fe36     Total:116      MisBP:0   MisRate:0.00%    MPKI:0.00
PC:831ee     Total:4      MisBP:0   MisRate:0.00%    MPKI:0.00
PC:2fe3a     Total:116      MisBP:0   MisRate:0.00%    MPKI:0.00
PC:2fe3c     Total:116      MisBP:0   MisRate:0.00%    MPKI:0.00
PC:16af2     Total:6144      MisBP:0   MisRate:0.00%    MPKI:0.00
PC:16cfc     Total:2050      MisBP:0   MisRate:0.00%    MPKI:0.00
PC:1ba02     Total:4938      MisBP:0   MisRate:0.00%    MPKI:0.00
PC:831fa     Total:4      MisBP:0   MisRate:0.00%    MPKI:0.00
PC:2fe46     Total:158      MisBP:0   MisRate:0.00%    MPKI:0.00
PC:1ba04     Total:4938      MisBP:0   MisRate:0.00%    MPKI:0.00
PC:44af0     Total:1      MisBP:0   MisRate:0.00%    MPKI:0.00
PC:1593e     Total:87510      MisBP:0   MisRate:0.00%    MPKI:0.00
PC:3f318     Total:3569      MisBP:0   MisRate:0.00%    MPKI:0.00
PC:532a0     Total:9      MisBP:0   MisRate:0.00%    MPKI:0.00
PC:7cc7a     Total:1      MisBP:0   MisRate:0.00%    MPKI:0.00
PC:3f31e     Total:145      MisBP:0   MisRate:0.00%    MPKI:0.00
PC:532a6     Total:9      MisBP:0   MisRate:0.00%    MPKI:0.00
PC:1ae92     Total:27925      MisBP:0   MisRate:0.00%    MPKI:0.00
PC:16804     Total:3777      MisBP:0   MisRate:0.00%    MPKI:0.00
PC:15f16     Total:33277      MisBP:0   MisRate:0.00%    MPKI:0.00
PC:41d68     Total:120      MisBP:0   MisRate:0.00%    MPKI:0.00
PC:7f6ca     Total:49      MisBP:0   MisRate:0.00%    MPKI:0.00
PC:41d6c     Total:120      MisBP:0   MisRate:0.00%    MPKI:0.00
PC:7f6ce     Total:49      MisBP:0   MisRate:0.00%    MPKI:0.00
PC:6c898     Total:1      MisBP:0   MisRate:0.00%    MPKI:0.00
PC:194e4     Total:1223      MisBP:0   MisRate:0.00%    MPKI:0.00
PC:1ae7e     Total:27925      MisBP:0   MisRate:0.00%    MPKI:0.00
PC:1ae84     Total:27925      MisBP:0   MisRate:0.00%    MPKI:0.00
PC:1ae88     Total:27925      MisBP:0   MisRate:0.00%    MPKI:0.00
PC:1ae8e     Total:27925      MisBP:0   MisRate:0.00%    MPKI:0.00
PC:401de     Total:53      MisBP:0   MisRate:0.00%    MPKI:0.00
PC:1ae98     Total:11519      MisBP:0   MisRate:0.00%    MPKI:0.00
PC:1ae9e     Total:24431      MisBP:0   MisRate:0.00%    MPKI:0.00
PC:1aeaa     Total:24431      MisBP:0   MisRate:0.00%    MPKI:0.00
PC:1aeb0     Total:24431      MisBP:0   MisRate:0.00%    MPKI:0.00
PC:411de     Total:8457      MisBP:0   MisRate:0.00%    MPKI:0.00
PC:36fbc     Total:113      MisBP:0   MisRate:0.00%    MPKI:0.00
PC:18bfc     Total:1      MisBP:0   MisRate:0.00%    MPKI:0.00
PC:41ce8     Total:695      MisBP:0   MisRate:0.00%    MPKI:0.00
PC:37262     Total:122095      MisBP:0   MisRate:0.00%    MPKI:0.00
PC:74bc4     Total:14      MisBP:0   MisRate:0.00%    MPKI:0.00
PC:41484     Total:3206      MisBP:0   MisRate:0.00%    MPKI:0.00
PC:37274     Total:118657      MisBP:0   MisRate:0.00%    MPKI:0.00
PC:16b72     Total:4915      MisBP:0   MisRate:0.00%    MPKI:0.00
PC:404f0     Total:1139      MisBP:0   MisRate:0.00%    MPKI:0.00
PC:16b16     Total:5943      MisBP:0   MisRate:0.00%    MPKI:0.00
PC:16b1a     Total:6195      MisBP:0   MisRate:0.00%    MPKI:0.00
PC:404fc     Total:7365      MisBP:0   MisRate:0.00%    MPKI:0.00
PC:16b22     Total:6189      MisBP:0   MisRate:0.00%    MPKI:0.00
PC:16b32     Total:6057      MisBP:0   MisRate:0.00%    MPKI:0.00
PC:40520     Total:3708      MisBP:0   MisRate:0.00%    MPKI:0.00
PC:16b46     Total:5109      MisBP:0   MisRate:0.00%    MPKI:0.00
PC:16b4c     Total:5109      MisBP:0   MisRate:0.00%    MPKI:0.00
PC:40534     Total:632      MisBP:0   MisRate:0.00%    MPKI:0.00
PC:16b5a     Total:4872      MisBP:0   MisRate:0.00%    MPKI:0.00
PC:4054c     Total:516      MisBP:0   MisRate:0.00%    MPKI:0.00
PC:1964e     Total:76495      MisBP:0   MisRate:0.00%    MPKI:0.00
PC:40550     Total:516      MisBP:0   MisRate:0.00%    MPKI:0.00
PC:16b76     Total:5400      MisBP:0   MisRate:0.00%    MPKI:0.00
PC:40552     Total:516      MisBP:0   MisRate:0.00%    MPKI:0.00
PC:16b78     Total:5925      MisBP:0   MisRate:0.00%    MPKI:0.00
PC:40554     Total:567      MisBP:0   MisRate:0.00%    MPKI:0.00
PC:16b7a     Total:5925      MisBP:0   MisRate:0.00%    MPKI:0.00
PC:40558     Total:567      MisBP:0   MisRate:0.00%    MPKI:0.00
PC:16b7e     Total:5671      MisBP:0   MisRate:0.00%    MPKI:0.00
PC:15b80     Total:28091      MisBP:0   MisRate:0.00%    MPKI:0.00
PC:534e2     Total:16      MisBP:0   MisRate:0.00%    MPKI:0.00
PC:3f5be     Total:2520      MisBP:0   MisRate:0.00%    MPKI:0.00
PC:15be4     Total:2330      MisBP:0   MisRate:0.00%    MPKI:0.00
PC:27988     Total:9      MisBP:0   MisRate:0.00%    MPKI:0.00
PC:5132c     Total:1905      MisBP:0   MisRate:0.00%    MPKI:0.00
PC:51330     Total:1905      MisBP:0   MisRate:0.00%    MPKI:0.00
PC:2795a     Total:16      MisBP:0   MisRate:0.00%    MPKI:0.00
PC:51334     Total:1905      MisBP:0   MisRate:0.00%    MPKI:0.00
PC:5133e     Total:1899      MisBP:0   MisRate:0.00%    MPKI:0.00
PC:27970     Total:16      MisBP:0   MisRate:0.00%    MPKI:0.00
PC:5134a     Total:1899      MisBP:0   MisRate:0.00%    MPKI:0.00
PC:27974     Total:16      MisBP:0   MisRate:0.00%    MPKI:0.00
PC:5134e     Total:302674      MisBP:0   MisRate:0.00%    MPKI:0.00
PC:27980     Total:12      MisBP:0   MisRate:0.00%    MPKI:0.00
PC:5135a     Total:303683      MisBP:0   MisRate:0.00%    MPKI:0.00
PC:27984     Total:12      MisBP:0   MisRate:0.00%    MPKI:0.00
PC:5135e     Total:303509      MisBP:0   MisRate:0.00%    MPKI:0.00
PC:27952     Total:18      MisBP:0   MisRate:0.00%    MPKI:0.00
PC:51362     Total:239808      MisBP:0   MisRate:0.00%    MPKI:0.00
PC:2798c     Total:4697      MisBP:0   MisRate:0.00%    MPKI:0.00
PC:51366     Total:239673      MisBP:0   MisRate:0.00%    MPKI:0.00
PC:5136a     Total:5291      MisBP:0   MisRate:0.00%    MPKI:0.00
PC:3cf38     Total:9779      MisBP:0   MisRate:0.00%    MPKI:0.00
PC:279a4     Total:9279      MisBP:0   MisRate:0.00%    MPKI:0.00
PC:5137e     Total:5163      MisBP:0   MisRate:0.00%    MPKI:0.00
PC:3cf3c     Total:1      MisBP:0   MisRate:0.00%    MPKI:0.00
PC:279a8     Total:4574      MisBP:0   MisRate:0.00%    MPKI:0.00
PC:51382     Total:4281      MisBP:0   MisRate:0.00%    MPKI:0.00
PC:279b0     Total:2275      MisBP:0   MisRate:0.00%    MPKI:0.00
PC:5138a     Total:4280      MisBP:0   MisRate:0.00%    MPKI:0.00
PC:28a5c     Total:97      MisBP:0   MisRate:0.00%    MPKI:0.00
PC:4253c     Total:8      MisBP:0   MisRate:0.00%    MPKI:0.00
PC:19454     Total:50      MisBP:0   MisRate:0.00%    MPKI:0.00
PC:42540     Total:7      MisBP:0   MisRate:0.00%    MPKI:0.00
PC:41cdc     Total:1919      MisBP:0   MisRate:0.00%    MPKI:0.00
PC:41cec     Total:2298      MisBP:0   MisRate:0.00%    MPKI:0.00
PC:516f8     Total:1988      MisBP:0   MisRate:0.00%    MPKI:0.00
PC:51708     Total:2914      MisBP:0   MisRate:0.00%    MPKI:0.00
PC:5171c     Total:1296      MisBP:0   MisRate:0.00%    MPKI:0.00
PC:51724     Total:1294      MisBP:0   MisRate:0.00%    MPKI:0.00
PC:3d2cc     Total:1234      MisBP:0   MisRate:0.00%    MPKI:0.00
PC:27904     Total:10      MisBP:0   MisRate:0.00%    MPKI:0.00
PC:512de     Total:1940      MisBP:0   MisRate:0.00%    MPKI:0.00
PC:279b4     Total:2275      MisBP:0   MisRate:0.00%    MPKI:0.00
PC:28a60     Total:2      MisBP:0   MisRate:0.00%    MPKI:0.00
PC:51b4c     Total:3808      MisBP:0   MisRate:0.00%    MPKI:0.00
PC:2790e     Total:10      MisBP:0   MisRate:0.00%    MPKI:0.00
PC:512e8     Total:1956      MisBP:0   MisRate:0.00%    MPKI:0.00
PC:28a64     Total:2      MisBP:0   MisRate:0.00%    MPKI:0.00
PC:3d2da     Total:1234      MisBP:0   MisRate:0.00%    MPKI:0.00
PC:51b50     Total:3678      MisBP:0   MisRate:0.00%    MPKI:0.00
PC:27912     Total:10      MisBP:0   MisRate:0.00%    MPKI:0.00
PC:512ec     Total:954      MisBP:0   MisRate:0.00%    MPKI:0.00
PC:28a68     Total:2      MisBP:0   MisRate:0.00%    MPKI:0.00
PC:51b54     Total:3624      MisBP:0   MisRate:0.00%    MPKI:0.00
PC:51328     Total:1906      MisBP:0   MisRate:0.00%    MPKI:0.00
PC:2fe4e     Total:197      MisBP:0   MisRate:0.00%    MPKI:0.00
PC:3db3e     Total:1231      MisBP:0   MisRate:0.00%    MPKI:0.00
PC:523b4     Total:31      MisBP:0   MisRate:0.00%    MPKI:0.00
PC:1e3aa     Total:5      MisBP:0   MisRate:0.00%    MPKI:0.00
PC:47d84     Total:24      MisBP:0   MisRate:0.00%    MPKI:0.00
PC:3db62     Total:39      MisBP:0   MisRate:0.00%    MPKI:0.00
PC:289fe     Total:3      MisBP:0   MisRate:0.00%    MPKI:0.00
PC:523d8     Total:2      MisBP:0   MisRate:0.00%    MPKI:0.00
PC:1ba06     Total:4938      MisBP:0   MisRate:0.00%    MPKI:0.00
PC:44af2     Total:1      MisBP:0   MisRate:0.00%    MPKI:0.00
PC:831fe     Total:4      MisBP:0   MisRate:0.00%    MPKI:0.00
PC:2fe4a     Total:178      MisBP:0   MisRate:0.00%    MPKI:0.00
PC:1ba0a     Total:4938      MisBP:0   MisRate:0.00%    MPKI:0.00
PC:83202     Total:4      MisBP:0   MisRate:0.00%    MPKI:0.00
PC:3391c     Total:13      MisBP:0   MisRate:0.00%    MPKI:0.00
PC:83206     Total:4      MisBP:0   MisRate:0.00%    MPKI:0.00
PC:1ba12     Total:3733      MisBP:0   MisRate:0.00%    MPKI:0.00
PC:8320a     Total:4      MisBP:0   MisRate:0.00%    MPKI:0.00
PC:2fe56     Total:194      MisBP:0   MisRate:0.00%    MPKI:0.00
PC:8320e     Total:4      MisBP:0   MisRate:0.00%    MPKI:0.00
PC:2fe5a     Total:208      MisBP:0   MisRate:0.00%    MPKI:0.00
PC:1ba18     Total:3665      MisBP:0   MisRate:0.00%    MPKI:0.00
PC:2fe5c     Total:208      MisBP:0   MisRate:0.00%    MPKI:0.00
PC:16d16     Total:1947      MisBP:0   MisRate:0.00%    MPKI:0.00
PC:2fe60     Total:205      MisBP:0   MisRate:0.00%    MPKI:0.00
PC:83216     Total:4      MisBP:0   MisRate:0.00%    MPKI:0.00
PC:2fe62     Total:205      MisBP:0   MisRate:0.00%    MPKI:0.00
PC:16908     Total:11072      MisBP:0   MisRate:0.00%    MPKI:0.00
PC:5138e     Total:4279      MisBP:0   MisRate:0.00%    MPKI:0.00
PC:51394     Total:4266      MisBP:0   MisRate:0.00%    MPKI:0.00
PC:513ac     Total:7526      MisBP:0   MisRate:0.00%    MPKI:0.00
PC:3cf78     Total:31931      MisBP:0   MisRate:0.00%    MPKI:0.00
PC:513dc     Total:21660      MisBP:0   MisRate:0.00%    MPKI:0.00
PC:51738     Total:1255      MisBP:0   MisRate:0.00%    MPKI:0.00
PC:1b7c0     Total:998      MisBP:0   MisRate:0.00%    MPKI:0.00
PC:1aed2     Total:26061      MisBP:0   MisRate:0.00%    MPKI:0.00
PC:448ac     Total:3      MisBP:0   MisRate:0.00%    MPKI:0.00
PC:15818     Total:29597      MisBP:0   MisRate:0.00%    MPKI:0.00
PC:3f1f2     Total:1313      MisBP:0   MisRate:0.00%    MPKI:0.00
PC:402e2     Total:18091      MisBP:0   MisRate:0.00%    MPKI:0.00
PC:41e70     Total:722      MisBP:0   MisRate:0.00%    MPKI:0.00
PC:3f1b6     Total:1519      MisBP:0   MisRate:0.00%    MPKI:0.00
PC:40308     Total:774      MisBP:0   MisRate:0.00%    MPKI:0.00
PC:1692e     Total:9935      MisBP:0   MisRate:0.00%    MPKI:0.00
PC:693f4     Total:2      MisBP:0   MisRate:0.00%    MPKI:0.00
PC:3fa1a     Total:4305      MisBP:0   MisRate:0.00%    MPKI:0.00
PC:1e352     Total:1      MisBP:0   MisRate:0.00%    MPKI:0.00
PC:47d2c     Total:8934      MisBP:0   MisRate:0.00%    MPKI:0.00
PC:3db0a     Total:194      MisBP:0   MisRate:0.00%    MPKI:0.00
PC:3db0e     Total:194      MisBP:0   MisRate:0.00%    MPKI:0.00
PC:52384     Total:629      MisBP:0   MisRate:0.00%    MPKI:0.00
PC:1e386     Total:2      MisBP:0   MisRate:0.00%    MPKI:0.00
PC:47d60     Total:219      MisBP:0   MisRate:0.00%    MPKI:0.00
PC:44a94     Total:1      MisBP:0   MisRate:0.00%    MPKI:0.00
PC:1b0aa     Total:11000      MisBP:0   MisRate:0.00%    MPKI:0.00
PC:44a84     Total:1      MisBP:0   MisRate:0.00%    MPKI:0.00
PC:9872a     Total:11      MisBP:0   MisRate:0.00%    MPKI:0.00
PC:30212     Total:9      MisBP:0   MisRate:0.00%    MPKI:0.00
PC:6e462     Total:1      MisBP:0   MisRate:0.00%    MPKI:0.00
PC:1b0ae     Total:11000      MisBP:0   MisRate:0.00%    MPKI:0.00
PC:44a88     Total:1      MisBP:0   MisRate:0.00%    MPKI:0.00
PC:8319c     Total:4      MisBP:0   MisRate:0.00%    MPKI:0.00
PC:2fde8     Total:122      MisBP:0   MisRate:0.00%    MPKI:0.00
PC:1b9a8     Total:3273      MisBP:0   MisRate:0.00%    MPKI:0.00
PC:3021e     Total:9      MisBP:0   MisRate:0.00%    MPKI:0.00
PC:6e46e     Total:1      MisBP:0   MisRate:0.00%    MPKI:0.00
PC:1b0ba     Total:10929      MisBP:0   MisRate:0.00%    MPKI:0.00
PC:97e38     Total:1      MisBP:0   MisRate:0.00%    MPKI:0.00
PC:831a0     Total:4      MisBP:0   MisRate:0.00%    MPKI:0.00
PC:2fdec     Total:122      MisBP:0   MisRate:0.00%    MPKI:0.00
PC:9873a     Total:11      MisBP:0   MisRate:0.00%    MPKI:0.00
PC:30222     Total:9      MisBP:0   MisRate:0.00%    MPKI:0.00
PC:6e472     Total:1      MisBP:0   MisRate:0.00%    MPKI:0.00
PC:1b0be     Total:10929      MisBP:0   MisRate:0.00%    MPKI:0.00
PC:44a98     Total:1      MisBP:0   MisRate:0.00%    MPKI:0.00
PC:831a4     Total:4      MisBP:0   MisRate:0.00%    MPKI:0.00
PC:2fdf0     Total:122      MisBP:0   MisRate:0.00%    MPKI:0.00
PC:1b9b0     Total:3198      MisBP:0   MisRate:0.00%    MPKI:0.00
PC:30226     Total:9      MisBP:0   MisRate:0.00%    MPKI:0.00
PC:6e476     Total:6      MisBP:0   MisRate:0.00%    MPKI:0.00
PC:1b97a     Total:4961      MisBP:0   MisRate:0.00%    MPKI:0.00
PC:2dec4     Total:2      MisBP:0   MisRate:0.00%    MPKI:0.00
PC:41e94     Total:930      MisBP:0   MisRate:0.00%    MPKI:0.00
PC:42fe8     Total:5      MisBP:0   MisRate:0.00%    MPKI:0.00
PC:1960e     Total:4061      MisBP:0   MisRate:0.00%    MPKI:0.00
PC:3d8bf4     Total:3      MisBP:0   MisRate:0.00%    MPKI:0.00
PC:986ec     Total:6      MisBP:0   MisRate:0.00%    MPKI:0.00
PC:1b95e     Total:91571      MisBP:0   MisRate:0.00%    MPKI:0.00
PC:301d4     Total:54      MisBP:0   MisRate:0.00%    MPKI:0.00
PC:97dfe     Total:10      MisBP:0   MisRate:0.00%    MPKI:0.00
PC:1b070     Total:10204      MisBP:0   MisRate:0.00%    MPKI:0.00
PC:44a4a     Total:1      MisBP:0   MisRate:0.00%    MPKI:0.00
PC:2fda2     Total:205      MisBP:0   MisRate:0.00%    MPKI:0.00
PC:1b0c2     Total:13214      MisBP:0   MisRate:0.00%    MPKI:0.00
PC:301f0     Total:18      MisBP:0   MisRate:0.00%    MPKI:0.00
PC:1b982     Total:4746      MisBP:0   MisRate:0.00%    MPKI:0.00
PC:301f8     Total:18      MisBP:0   MisRate:0.00%    MPKI:0.00
PC:98714     Total:7      MisBP:0   MisRate:0.00%    MPKI:0.00
PC:1b986     Total:4690      MisBP:0   MisRate:0.00%    MPKI:0.00
PC:301fc     Total:18      MisBP:0   MisRate:0.00%    MPKI:0.00
PC:30208     Total:11      MisBP:0   MisRate:0.00%    MPKI:0.00
PC:97e32     Total:1      MisBP:0   MisRate:0.00%    MPKI:0.00
PC:44a7e     Total:1      MisBP:0   MisRate:0.00%    MPKI:0.00
PC:1b998     Total:86764      MisBP:0   MisRate:0.00%    MPKI:0.00
PC:3020e     Total:11      MisBP:0   MisRate:0.00%    MPKI:0.00
PC:6e45e     Total:1      MisBP:0   MisRate:0.00%    MPKI:0.00
PC:1b9e0     Total:1022      MisBP:0   MisRate:0.00%    MPKI:0.00
PC:2fe10     Total:773      MisBP:0   MisRate:0.00%    MPKI:0.00
PC:1b9d0     Total:1123      MisBP:0   MisRate:0.00%    MPKI:0.00
PC:1b0e2     Total:9484      MisBP:0   MisRate:0.00%    MPKI:0.00
PC:44abc     Total:28      MisBP:0   MisRate:0.00%    MPKI:0.00
PC:2fe14     Total:773      MisBP:0   MisRate:0.00%    MPKI:0.00
PC:1b9d4     Total:1105      MisBP:0   MisRate:0.00%    MPKI:0.00
PC:44ac0     Total:25      MisBP:0   MisRate:0.00%    MPKI:0.00
PC:2fe18     Total:773      MisBP:0   MisRate:0.00%    MPKI:0.00
PC:1b9da     Total:1102      MisBP:0   MisRate:0.00%    MPKI:0.00
PC:44ac6     Total:24      MisBP:0   MisRate:0.00%    MPKI:0.00
PC:831d2     Total:4      MisBP:0   MisRate:0.00%    MPKI:0.00
PC:2fe1e     Total:793      MisBP:0   MisRate:0.00%    MPKI:0.00
PC:1b9cc     Total:1123      MisBP:0   MisRate:0.00%    MPKI:0.00
PC:44acc     Total:24      MisBP:0   MisRate:0.00%    MPKI:0.00
PC:2fe24     Total:790      MisBP:0   MisRate:0.00%    MPKI:0.00
PC:831de     Total:4      MisBP:0   MisRate:0.00%    MPKI:0.00
PC:2fe2a     Total:88      MisBP:0   MisRate:0.00%    MPKI:0.00
PC:831f2     Total:4      MisBP:0   MisRate:0.00%    MPKI:0.00
PC:2fe3e     Total:115      MisBP:0   MisRate:0.00%    MPKI:0.00
PC:3d8b4c     Total:1      MisBP:0   MisRate:0.00%    MPKI:0.00
PC:2fcfa     Total:749      MisBP:0   MisRate:0.00%    MPKI:0.00
PC:2fd8e     Total:224      MisBP:0   MisRate:0.00%    MPKI:0.00
PC:42fac     Total:657      MisBP:0   MisRate:0.00%    MPKI:0.00
PC:195d2     Total:5480      MisBP:0   MisRate:0.00%    MPKI:0.00
PC:41e6c     Total:660      MisBP:0   MisRate:0.00%    MPKI:0.00
PC:301a8     Total:16      MisBP:0   MisRate:0.00%    MPKI:0.00
PC:44a9c     Total:28      MisBP:0   MisRate:0.00%    MPKI:0.00
PC:831a8     Total:4      MisBP:0   MisRate:0.00%    MPKI:0.00
PC:2fdf4     Total:122      MisBP:0   MisRate:0.00%    MPKI:0.00
PC:83108     Total:4      MisBP:0   MisRate:0.00%    MPKI:0.00
PC:2fd54     Total:14992      MisBP:0   MisRate:0.00%    MPKI:0.00
PC:8310c     Total:4      MisBP:0   MisRate:0.00%    MPKI:0.00
PC:83110     Total:4      MisBP:0   MisRate:0.00%    MPKI:0.00
PC:2fd5c     Total:7256      MisBP:0   MisRate:0.00%    MPKI:0.00
PC:83120     Total:4      MisBP:0   MisRate:0.00%    MPKI:0.00
PC:2fd6c     Total:2966      MisBP:0   MisRate:0.00%    MPKI:0.00
PC:3d8bc8     Total:1      MisBP:0   MisRate:0.00%    MPKI:0.00
PC:1b932     Total:2819      MisBP:0   MisRate:0.00%    MPKI:0.00
PC:1b9e2     Total:1022      MisBP:0   MisRate:0.00%    MPKI:0.00
PC:3d8bcc     Total:1      MisBP:0   MisRate:0.00%    MPKI:0.00
PC:986c4     Total:5      MisBP:0   MisRate:0.00%    MPKI:0.00
PC:1b936     Total:2489      MisBP:0   MisRate:0.00%    MPKI:0.00
PC:301ac     Total:16      MisBP:0   MisRate:0.00%    MPKI:0.00
PC:1b9c4     Total:487      MisBP:0   MisRate:0.00%    MPKI:0.00
PC:3023a     Total:38      MisBP:0   MisRate:0.00%    MPKI:0.00
PC:1b0d6     Total:9484      MisBP:0   MisRate:0.00%    MPKI:0.00
PC:44ab0     Total:29      MisBP:0   MisRate:0.00%    MPKI:0.00
PC:2fe08     Total:603      MisBP:0   MisRate:0.00%    MPKI:0.00
PC:1b9c8     Total:1123      MisBP:0   MisRate:0.00%    MPKI:0.00
PC:3023e     Total:216      MisBP:0   MisRate:0.00%    MPKI:0.00
PC:2fe0c     Total:768      MisBP:0   MisRate:0.00%    MPKI:0.00
PC:52396     Total:3612      MisBP:0   MisRate:0.00%    MPKI:0.00
PC:1ec4c     Total:2      MisBP:0   MisRate:0.00%    MPKI:0.00
PC:3db16     Total:6665      MisBP:0   MisRate:0.00%    MPKI:0.00
PC:3db18     Total:6657      MisBP:0   MisRate:0.00%    MPKI:0.00
PC:289b4     Total:107      MisBP:0   MisRate:0.00%    MPKI:0.00
PC:5238e     Total:1837      MisBP:0   MisRate:0.00%    MPKI:0.00
PC:47d3e     Total:8716      MisBP:0   MisRate:0.00%    MPKI:0.00
PC:72006     Total:16      MisBP:0   MisRate:0.00%    MPKI:0.00
PC:1ec52     Total:2      MisBP:0   MisRate:0.00%    MPKI:0.00
PC:3db1c     Total:8874      MisBP:0   MisRate:0.00%    MPKI:0.00
PC:3db1e     Total:8874      MisBP:0   MisRate:0.00%    MPKI:0.00
PC:1e368     Total:1      MisBP:0   MisRate:0.00%    MPKI:0.00
PC:47d42     Total:8716      MisBP:0   MisRate:0.00%    MPKI:0.00
PC:289bc     Total:107      MisBP:0   MisRate:0.00%    MPKI:0.00
PC:47d38     Total:8896      MisBP:0   MisRate:0.00%    MPKI:0.00
PC:1e36a     Total:1      MisBP:0   MisRate:0.00%    MPKI:0.00
PC:47d44     Total:841      MisBP:0   MisRate:0.00%    MPKI:0.00
PC:1ec58     Total:2      MisBP:0   MisRate:0.00%    MPKI:0.00
PC:3db22     Total:1636      MisBP:0   MisRate:0.00%    MPKI:0.00
PC:47d48     Total:841      MisBP:0   MisRate:0.00%    MPKI:0.00
PC:1ec5c     Total:2      MisBP:0   MisRate:0.00%    MPKI:0.00
PC:3db26     Total:1636      MisBP:0   MisRate:0.00%    MPKI:0.00
PC:289c2     Total:105      MisBP:0   MisRate:0.00%    MPKI:0.00
PC:47d4c     Total:841      MisBP:0   MisRate:0.00%    MPKI:0.00
PC:1ec60     Total:2      MisBP:0   MisRate:0.00%    MPKI:0.00
PC:3db2a     Total:1636      MisBP:0   MisRate:0.00%    MPKI:0.00
PC:523a0     Total:654      MisBP:0   MisRate:0.00%    MPKI:0.00
PC:47cd6     Total:16      MisBP:0   MisRate:0.00%    MPKI:0.00
PC:162d4     Total:39940      MisBP:0   MisRate:0.00%    MPKI:0.00
PC:3eb5c     Total:1930      MisBP:0   MisRate:0.00%    MPKI:0.00
PC:3eb60     Total:1930      MisBP:0   MisRate:0.00%    MPKI:0.00
PC:3d080     Total:60      MisBP:0   MisRate:0.00%    MPKI:0.00
PC:518f6     Total:125      MisBP:0   MisRate:0.00%    MPKI:0.00
PC:3d0a2     Total:309      MisBP:0   MisRate:0.00%    MPKI:0.00
PC:1c484     Total:8028      MisBP:0   MisRate:0.00%    MPKI:0.00
PC:1c49e     Total:10416      MisBP:0   MisRate:0.00%    MPKI:0.00
PC:1c4a2     Total:10416      MisBP:0   MisRate:0.00%    MPKI:0.00
PC:1c4a6     Total:10416      MisBP:0   MisRate:0.00%    MPKI:0.00
PC:3da90     Total:10557      MisBP:0   MisRate:0.00%    MPKI:0.00
PC:1e2fc     Total:1      MisBP:0   MisRate:0.00%    MPKI:0.00
PC:47d50     Total:841      MisBP:0   MisRate:0.00%    MPKI:0.00
PC:3dab4     Total:10425      MisBP:0   MisRate:0.00%    MPKI:0.00
PC:5232a     Total:38      MisBP:0   MisRate:0.00%    MPKI:0.00
PC:28966     Total:2254      MisBP:0   MisRate:0.00%    MPKI:0.00
PC:52340     Total:5      MisBP:0   MisRate:0.00%    MPKI:0.00
PC:1e35a     Total:1      MisBP:0   MisRate:0.00%    MPKI:0.00
PC:47d34     Total:8896      MisBP:0   MisRate:0.00%    MPKI:0.00
PC:3db12     Total:6665      MisBP:0   MisRate:0.00%    MPKI:0.00
PC:289ae     Total:107      MisBP:0   MisRate:0.00%    MPKI:0.00
PC:52388     Total:629      MisBP:0   MisRate:0.00%    MPKI:0.00
PC:3db14     Total:6665      MisBP:0   MisRate:0.00%    MPKI:0.00
PC:5238a     Total:629      MisBP:0   MisRate:0.00%    MPKI:0.00
PC:1e35e     Total:1      MisBP:0   MisRate:0.00%    MPKI:0.00
PC:3dbc6     Total:13515      MisBP:0   MisRate:0.00%    MPKI:0.00
PC:3db94     Total:6985      MisBP:0   MisRate:0.00%    MPKI:0.00
PC:3db98     Total:6983      MisBP:0   MisRate:0.00%    MPKI:0.00
PC:3db9c     Total:6983      MisBP:0   MisRate:0.00%    MPKI:0.00
PC:3dba0     Total:13344      MisBP:0   MisRate:0.00%    MPKI:0.00
PC:1e3f0     Total:4      MisBP:0   MisRate:0.00%    MPKI:0.00
PC:47dca     Total:2      MisBP:0   MisRate:0.00%    MPKI:0.00
PC:3dba8     Total:11274      MisBP:0   MisRate:0.00%    MPKI:0.00
PC:1e3f4     Total:3      MisBP:0   MisRate:0.00%    MPKI:0.00
PC:47dce     Total:2      MisBP:0   MisRate:0.00%    MPKI:0.00
PC:3dbac     Total:11273      MisBP:0   MisRate:0.00%    MPKI:0.00
PC:3dbb2     Total:11273      MisBP:0   MisRate:0.00%    MPKI:0.00
PC:3dbb8     Total:15461      MisBP:0   MisRate:0.00%    MPKI:0.00
PC:3dbc2     Total:13515      MisBP:0   MisRate:0.00%    MPKI:0.00
PC:47db6     Total:4      MisBP:0   MisRate:0.00%    MPKI:0.00
PC:3dbcc     Total:14362      MisBP:0   MisRate:0.00%    MPKI:0.00
PC:47dfc     Total:9      MisBP:0   MisRate:0.00%    MPKI:0.00
PC:3dbda     Total:23584      MisBP:0   MisRate:0.00%    MPKI:0.00
PC:3dbe0     Total:23582      MisBP:0   MisRate:0.00%    MPKI:0.00
PC:3dbe6     Total:23401      MisBP:0   MisRate:0.00%    MPKI:0.00
PC:3dbea     Total:23398      MisBP:0   MisRate:0.00%    MPKI:0.00
PC:3dbfa     Total:7264      MisBP:0   MisRate:0.00%    MPKI:0.00
PC:3dc0a     Total:6668      MisBP:0   MisRate:0.00%    MPKI:0.00
PC:3dc10     Total:6668      MisBP:0   MisRate:0.00%    MPKI:0.00
PC:47e3c     Total:9      MisBP:0   MisRate:0.00%    MPKI:0.00
PC:3dc1a     Total:6187      MisBP:0   MisRate:0.00%    MPKI:0.00
PC:47e4a     Total:4      MisBP:0   MisRate:0.00%    MPKI:0.00
PC:1e3cc     Total:6      MisBP:0   MisRate:0.00%    MPKI:0.00
PC:1ec64     Total:15      MisBP:0   MisRate:0.00%    MPKI:0.00
PC:3db2e     Total:1636      MisBP:0   MisRate:0.00%    MPKI:0.00
PC:289ca     Total:105      MisBP:0   MisRate:0.00%    MPKI:0.00
PC:523a4     Total:654      MisBP:0   MisRate:0.00%    MPKI:0.00
PC:3db32     Total:1636      MisBP:0   MisRate:0.00%    MPKI:0.00
PC:289ce     Total:105      MisBP:0   MisRate:0.00%    MPKI:0.00
PC:523a8     Total:287      MisBP:0   MisRate:0.00%    MPKI:0.00
PC:1e382     Total:2      MisBP:0   MisRate:0.00%    MPKI:0.00
PC:47d5c     Total:526      MisBP:0   MisRate:0.00%    MPKI:0.00
PC:3db3a     Total:1636      MisBP:0   MisRate:0.00%    MPKI:0.00
PC:523b0     Total:36      MisBP:0   MisRate:0.00%    MPKI:0.00
PC:3db6c     Total:6561      MisBP:0   MisRate:0.00%    MPKI:0.00
PC:3f3be     Total:4      MisBP:0   MisRate:0.00%    MPKI:0.00
PC:47da6     Total:5      MisBP:0   MisRate:0.00%    MPKI:0.00
PC:28a20     Total:48      MisBP:0   MisRate:0.00%    MPKI:0.00
PC:523fa     Total:1      MisBP:0   MisRate:0.00%    MPKI:0.00
PC:3db88     Total:6985      MisBP:0   MisRate:0.00%    MPKI:0.00
PC:28a24     Total:48      MisBP:0   MisRate:0.00%    MPKI:0.00
PC:523fe     Total:1      MisBP:0   MisRate:0.00%    MPKI:0.00
PC:1e3d4     Total:4      MisBP:0   MisRate:0.00%    MPKI:0.00
PC:47dae     Total:4      MisBP:0   MisRate:0.00%    MPKI:0.00
PC:3db8c     Total:6985      MisBP:0   MisRate:0.00%    MPKI:0.00
PC:47db2     Total:4      MisBP:0   MisRate:0.00%    MPKI:0.00
PC:3db90     Total:6985      MisBP:0   MisRate:0.00%    MPKI:0.00
PC:1e3dc     Total:2      MisBP:0   MisRate:0.00%    MPKI:0.00
PC:3f720     Total:198      MisBP:0   MisRate:0.00%    MPKI:0.00
PC:1c544     Total:5182      MisBP:0   MisRate:0.00%    MPKI:0.00
PC:40864     Total:23474      MisBP:0   MisRate:0.00%    MPKI:0.00
PC:16e8a     Total:642      MisBP:0   MisRate:0.00%    MPKI:0.00
PC:15d38     Total:35088      MisBP:0   MisRate:0.00%    MPKI:0.00
PC:3f712     Total:8212      MisBP:0   MisRate:0.00%    MPKI:0.00
PC:1c546     Total:5181      MisBP:0   MisRate:0.00%    MPKI:0.00
PC:1c548     Total:5180      MisBP:0   MisRate:0.00%    MPKI:0.00
PC:1c54c     Total:5180      MisBP:0   MisRate:0.00%    MPKI:0.00
PC:1c54e     Total:5180      MisBP:0   MisRate:0.00%    MPKI:0.00
PC:3f71c     Total:198      MisBP:0   MisRate:0.00%    MPKI:0.00
PC:1c550     Total:5180      MisBP:0   MisRate:0.00%    MPKI:0.00
PC:1c552     Total:5063      MisBP:0   MisRate:0.00%    MPKI:0.00
PC:15d46     Total:32942      MisBP:0   MisRate:0.00%    MPKI:0.00
PC:1c542     Total:5182      MisBP:0   MisRate:0.00%    MPKI:0.00
PC:1c556     Total:91553      MisBP:0   MisRate:0.00%    MPKI:0.00
PC:15d4a     Total:32942      MisBP:0   MisRate:0.00%    MPKI:0.00
PC:3f724     Total:198      MisBP:0   MisRate:0.00%    MPKI:0.00
PC:1c55a     Total:45768      MisBP:0   MisRate:0.00%    MPKI:0.00
PC:4087a     Total:3163      MisBP:0   MisRate:0.00%    MPKI:0.00
PC:16ea0     Total:637      MisBP:0   MisRate:0.00%    MPKI:0.00
PC:15d50     Total:32942      MisBP:0   MisRate:0.00%    MPKI:0.00
PC:3f72a     Total:198      MisBP:0   MisRate:0.00%    MPKI:0.00
PC:1c55e     Total:4417      MisBP:0   MisRate:0.00%    MPKI:0.00
PC:4087e     Total:3163      MisBP:0   MisRate:0.00%    MPKI:0.00
PC:16ea4     Total:637      MisBP:0   MisRate:0.00%    MPKI:0.00
PC:1c560     Total:4415      MisBP:0   MisRate:0.00%    MPKI:0.00
PC:3fe30     Total:488      MisBP:0   MisRate:0.00%    MPKI:0.00
PC:16440     Total:27367      MisBP:0   MisRate:0.00%    MPKI:0.00
PC:3fe1a     Total:508      MisBP:0   MisRate:0.00%    MPKI:0.00
PC:16444     Total:27367      MisBP:0   MisRate:0.00%    MPKI:0.00
PC:3fe1e     Total:488      MisBP:0   MisRate:0.00%    MPKI:0.00
PC:3fe22     Total:488      MisBP:0   MisRate:0.00%    MPKI:0.00
PC:1644c     Total:27603      MisBP:0   MisRate:0.00%    MPKI:0.00
PC:3fe26     Total:488      MisBP:0   MisRate:0.00%    MPKI:0.00
PC:1644e     Total:27603      MisBP:0   MisRate:0.00%    MPKI:0.00
PC:3fe28     Total:488      MisBP:0   MisRate:0.00%    MPKI:0.00
PC:3fe2a     Total:488      MisBP:0   MisRate:0.00%    MPKI:0.00
PC:3fe2e     Total:488      MisBP:0   MisRate:0.00%    MPKI:0.00
PC:16456     Total:27603      MisBP:0   MisRate:0.00%    MPKI:0.00
PC:1c562     Total:4415      MisBP:0   MisRate:0.00%    MPKI:0.00
PC:16458     Total:27177      MisBP:0   MisRate:0.00%    MPKI:0.00
PC:3fe32     Total:488      MisBP:0   MisRate:0.00%    MPKI:0.00
PC:3fe34     Total:476      MisBP:0   MisRate:0.00%    MPKI:0.00
PC:1c530     Total:5511      MisBP:0   MisRate:0.00%    MPKI:0.00
PC:3f6fe     Total:8219      MisBP:0   MisRate:0.00%    MPKI:0.00
PC:1c534     Total:54890      MisBP:0   MisRate:0.00%    MPKI:0.00
PC:3f702     Total:8219      MisBP:0   MisRate:0.00%    MPKI:0.00
PC:1c538     Total:5461      MisBP:0   MisRate:0.00%    MPKI:0.00
PC:15d2c     Total:7192      MisBP:0   MisRate:0.00%    MPKI:0.00
PC:3f706     Total:8215      MisBP:0   MisRate:0.00%    MPKI:0.00
PC:1c53c     Total:5461      MisBP:0   MisRate:0.00%    MPKI:0.00
PC:1c540     Total:5182      MisBP:0   MisRate:0.00%    MPKI:0.00
PC:16050     Total:5767      MisBP:0   MisRate:0.00%    MPKI:0.00
PC:16f70     Total:11524      MisBP:0   MisRate:0.00%    MPKI:0.00
PC:4094a     Total:591      MisBP:0   MisRate:0.00%    MPKI:0.00
PC:1958a     Total:8357      MisBP:0   MisRate:0.00%    MPKI:0.00
PC:162be     Total:22662      MisBP:0   MisRate:0.00%    MPKI:0.00
PC:3eb46     Total:560      MisBP:0   MisRate:0.00%    MPKI:0.00
PC:3fca0     Total:12      MisBP:0   MisRate:0.00%    MPKI:0.00
PC:162c6     Total:18745      MisBP:0   MisRate:0.00%    MPKI:0.00
PC:159d8     Total:93140      MisBP:0   MisRate:0.00%    MPKI:0.00
PC:3f3b2     Total:9      MisBP:0   MisRate:0.00%    MPKI:0.00
PC:40318     Total:772      MisBP:0   MisRate:0.00%    MPKI:0.00
PC:1693e     Total:10382      MisBP:0   MisRate:0.00%    MPKI:0.00
PC:69404     Total:2      MisBP:0   MisRate:0.00%    MPKI:0.00
PC:177d0     Total:25      MisBP:0   MisRate:0.00%    MPKI:0.00
PC:3fa2a     Total:4292      MisBP:0   MisRate:0.00%    MPKI:0.00
PC:3eb50     Total:1944      MisBP:0   MisRate:0.00%    MPKI:0.00
PC:533c6     Total:47      MisBP:0   MisRate:0.00%    MPKI:0.00
PC:3fca6     Total:10      MisBP:0   MisRate:0.00%    MPKI:0.00
PC:162cc     Total:22579      MisBP:0   MisRate:0.00%    MPKI:0.00
PC:3f3b8     Total:9      MisBP:0   MisRate:0.00%    MPKI:0.00
PC:162ce     Total:22579      MisBP:0   MisRate:0.00%    MPKI:0.00
PC:159e0     Total:93140      MisBP:0   MisRate:0.00%    MPKI:0.00
PC:3f3ba     Total:9      MisBP:0   MisRate:0.00%    MPKI:0.00
PC:3fcac     Total:9      MisBP:0   MisRate:0.00%    MPKI:0.00
PC:162d2     Total:40670      MisBP:0   MisRate:0.00%    MPKI:0.00
PC:159e4     Total:119652      MisBP:0   MisRate:0.00%    MPKI:0.00
PC:29f88     Total:18      MisBP:0   MisRate:0.00%    MPKI:0.00
PC:1c566     Total:4342      MisBP:0   MisRate:0.00%    MPKI:0.00
PC:1c56a     Total:4342      MisBP:0   MisRate:0.00%    MPKI:0.00
PC:1c56c     Total:4341      MisBP:0   MisRate:0.00%    MPKI:0.00
PC:1c56e     Total:4341      MisBP:0   MisRate:0.00%    MPKI:0.00
PC:1c572     Total:4337      MisBP:0   MisRate:0.00%    MPKI:0.00
PC:1c574     Total:4337      MisBP:0   MisRate:0.00%    MPKI:0.00
PC:1c576     Total:4337      MisBP:0   MisRate:0.00%    MPKI:0.00
PC:1c57a     Total:4320      MisBP:0   MisRate:0.00%    MPKI:0.00
PC:1c57c     Total:4230      MisBP:0   MisRate:0.00%    MPKI:0.00
PC:16000     Total:3932      MisBP:0   MisRate:0.00%    MPKI:0.00
PC:15712     Total:284765      MisBP:0   MisRate:0.00%    MPKI:0.00
PC:3f0ec     Total:172      MisBP:0   MisRate:0.00%    MPKI:0.00
PC:3dc28     Total:7128      MisBP:0   MisRate:0.00%    MPKI:0.00
PC:53962     Total:2      MisBP:0   MisRate:0.00%    MPKI:0.00
PC:8313c     Total:4      MisBP:0   MisRate:0.00%    MPKI:0.00
PC:2fd88     Total:224      MisBP:0   MisRate:0.00%    MPKI:0.00
PC:986d2     Total:70      MisBP:0   MisRate:0.00%    MPKI:0.00
PC:1b944     Total:2170      MisBP:0   MisRate:0.00%    MPKI:0.00
PC:16902     Total:11072      MisBP:0   MisRate:0.00%    MPKI:0.00
PC:693c8     Total:2      MisBP:0   MisRate:0.00%    MPKI:0.00
PC:16014     Total:7049      MisBP:0   MisRate:0.00%    MPKI:0.00
PC:3f9ee     Total:2621      MisBP:0   MisRate:0.00%    MPKI:0.00
PC:16f6c     Total:11689      MisBP:0   MisRate:0.00%    MPKI:0.00
PC:40946     Total:591      MisBP:0   MisRate:0.00%    MPKI:0.00
PC:180be     Total:1537      MisBP:0   MisRate:0.00%    MPKI:0.00
PC:3c952     Total:1      MisBP:0   MisRate:0.00%    MPKI:0.00
PC:9924c     Total:16      MisBP:0   MisRate:0.00%    MPKI:0.00
PC:1c4be     Total:19877      MisBP:0   MisRate:0.00%    MPKI:0.00
PC:1c4c0     Total:17259      MisBP:0   MisRate:0.00%    MPKI:0.00
PC:1c4c8     Total:17312      MisBP:0   MisRate:0.00%    MPKI:0.00
PC:9926a     Total:16      MisBP:0   MisRate:0.00%    MPKI:0.00
PC:1c4dc     Total:10      MisBP:0   MisRate:0.00%    MPKI:0.00
PC:99270     Total:16      MisBP:0   MisRate:0.00%    MPKI:0.00
PC:1c4e2     Total:5      MisBP:0   MisRate:0.00%    MPKI:0.00
PC:1c4ea     Total:5      MisBP:0   MisRate:0.00%    MPKI:0.00
PC:1c4ee     Total:5      MisBP:0   MisRate:0.00%    MPKI:0.00
PC:1c4f2     Total:5      MisBP:0   MisRate:0.00%    MPKI:0.00
PC:3c940     Total:4921      MisBP:0   MisRate:0.00%    MPKI:0.00
PC:32730     Total:1      MisBP:0   MisRate:0.00%    MPKI:0.00
PC:6f872     Total:30      MisBP:0   MisRate:0.00%    MPKI:0.00
PC:66342     Total:1      MisBP:0   MisRate:0.00%    MPKI:0.00
PC:3c968     Total:1      MisBP:0   MisRate:0.00%    MPKI:0.00
PC:43162     Total:899      MisBP:0   MisRate:0.00%    MPKI:0.00
PC:19788     Total:34816      MisBP:0   MisRate:0.00%    MPKI:0.00
PC:3fd72     Total:961      MisBP:0   MisRate:0.00%    MPKI:0.00
PC:93126     Total:6346      MisBP:0   MisRate:0.00%    MPKI:0.00
PC:19794     Total:20619      MisBP:0   MisRate:0.00%    MPKI:0.00
PC:40856     Total:4361      MisBP:0   MisRate:0.00%    MPKI:0.00
PC:16e7c     Total:1141      MisBP:0   MisRate:0.00%    MPKI:0.00
PC:3f718     Total:198      MisBP:0   MisRate:0.00%    MPKI:0.00
PC:16eb6     Total:631      MisBP:0   MisRate:0.00%    MPKI:0.00
PC:15d64     Total:7387      MisBP:0   MisRate:0.00%    MPKI:0.00
PC:40172     Total:195      MisBP:0   MisRate:0.00%    MPKI:0.00
PC:1676e     Total:12468      MisBP:0   MisRate:0.00%    MPKI:0.00
PC:40148     Total:2099      MisBP:0   MisRate:0.00%    MPKI:0.00
PC:1f854     Total:488      MisBP:0   MisRate:0.00%    MPKI:0.00
PC:1f858     Total:488      MisBP:0   MisRate:0.00%    MPKI:0.00
PC:72c0c     Total:10      MisBP:0   MisRate:0.00%    MPKI:0.00
PC:16788     Total:4266      MisBP:0   MisRate:0.00%    MPKI:0.00
PC:40162     Total:209      MisBP:0   MisRate:0.00%    MPKI:0.00
PC:4016e     Total:195      MisBP:0   MisRate:0.00%    MPKI:0.00
PC:40a5c     Total:71      MisBP:0   MisRate:0.00%    MPKI:0.00
PC:17082     Total:12763      MisBP:0   MisRate:0.00%    MPKI:0.00
PC:72c1c     Total:9      MisBP:0   MisRate:0.00%    MPKI:0.00
PC:16798     Total:4263      MisBP:0   MisRate:0.00%    MPKI:0.00
PC:3f73e     Total:7986      MisBP:0   MisRate:0.00%    MPKI:0.00
PC:1f870     Total:127      MisBP:0   MisRate:0.00%    MPKI:0.00
PC:72c24     Total:9      MisBP:0   MisRate:0.00%    MPKI:0.00
PC:167a0     Total:21966      MisBP:0   MisRate:0.00%    MPKI:0.00
PC:4017a     Total:195      MisBP:0   MisRate:0.00%    MPKI:0.00
PC:1c4ae     Total:20398      MisBP:0   MisRate:0.00%    MPKI:0.00
PC:6f864     Total:6      MisBP:0   MisRate:0.00%    MPKI:0.00
PC:9923e     Total:16      MisBP:0   MisRate:0.00%    MPKI:0.00
PC:1c4b0     Total:20298      MisBP:0   MisRate:0.00%    MPKI:0.00
PC:6f868     Total:2      MisBP:0   MisRate:0.00%    MPKI:0.00
PC:1c4b4     Total:20298      MisBP:0   MisRate:0.00%    MPKI:0.00
PC:6f86c     Total:10      MisBP:0   MisRate:0.00%    MPKI:0.00
PC:1c4b8     Total:20297      MisBP:0   MisRate:0.00%    MPKI:0.00
PC:44ac2     Total:25      MisBP:0   MisRate:0.00%    MPKI:0.00
PC:3fdb4     Total:1      MisBP:0   MisRate:0.00%    MPKI:0.00
PC:1b9ce     Total:1123      MisBP:0   MisRate:0.00%    MPKI:0.00
PC:44aba     Total:29      MisBP:0   MisRate:0.00%    MPKI:0.00
PC:831c6     Total:4      MisBP:0   MisRate:0.00%    MPKI:0.00
PC:2fe12     Total:773      MisBP:0   MisRate:0.00%    MPKI:0.00
PC:3f554     Total:20516      MisBP:0   MisRate:0.00%    MPKI:0.00
PC:534dc     Total:16      MisBP:0   MisRate:0.00%    MPKI:0.00
PC:7ceb6     Total:2      MisBP:0   MisRate:0.00%    MPKI:0.00
PC:1b9d2     Total:1107      MisBP:0   MisRate:0.00%    MPKI:0.00
PC:831ca     Total:4      MisBP:0   MisRate:0.00%    MPKI:0.00
PC:2fe16     Total:773      MisBP:0   MisRate:0.00%    MPKI:0.00
PC:1b9d6     Total:1105      MisBP:0   MisRate:0.00%    MPKI:0.00
PC:1b0e8     Total:9301      MisBP:0   MisRate:0.00%    MPKI:0.00
PC:93168     Total:29      MisBP:0   MisRate:0.00%    MPKI:0.00
PC:831ce     Total:4      MisBP:0   MisRate:0.00%    MPKI:0.00
PC:2fe1a     Total:805      MisBP:0   MisRate:0.00%    MPKI:0.00
PC:93172     Total:6      MisBP:0   MisRate:0.00%    MPKI:0.00
PC:163e4     Total:43181      MisBP:0   MisRate:0.00%    MPKI:0.00
PC:3fdbe     Total:1      MisBP:0   MisRate:0.00%    MPKI:0.00
PC:1b9d8     Total:1104      MisBP:0   MisRate:0.00%    MPKI:0.00
PC:1b0ea     Total:9301      MisBP:0   MisRate:0.00%    MPKI:0.00
PC:44ac4     Total:25      MisBP:0   MisRate:0.00%    MPKI:0.00
PC:2fe1c     Total:793      MisBP:0   MisRate:0.00%    MPKI:0.00
PC:1b9dc     Total:1102      MisBP:0   MisRate:0.00%    MPKI:0.00
PC:44ac8     Total:24      MisBP:0   MisRate:0.00%    MPKI:0.00
PC:2fe20     Total:790      MisBP:0   MisRate:0.00%    MPKI:0.00
PC:44ab2     Total:29      MisBP:0   MisRate:0.00%    MPKI:0.00
PC:3c192     Total:502      MisBP:0   MisRate:0.00%    MPKI:0.00
PC:3c196     Total:502      MisBP:0   MisRate:0.00%    MPKI:0.00
PC:3c1a8     Total:365      MisBP:0   MisRate:0.00%    MPKI:0.00
PC:31f9c     Total:153      MisBP:0   MisRate:0.00%    MPKI:0.00
PC:3c1be     Total:465      MisBP:0   MisRate:0.00%    MPKI:0.00
PC:31fce     Total:47      MisBP:0   MisRate:0.00%    MPKI:0.00
PC:3c1f0     Total:2      MisBP:0   MisRate:0.00%    MPKI:0.00
PC:16cc0     Total:3810      MisBP:0   MisRate:0.00%    MPKI:0.00
PC:93160     Total:86      MisBP:0   MisRate:0.00%    MPKI:0.00
PC:163d2     Total:46765      MisBP:0   MisRate:0.00%    MPKI:0.00
PC:3fdac     Total:1      MisBP:0   MisRate:0.00%    MPKI:0.00
PC:3023c     Total:38      MisBP:0   MisRate:0.00%    MPKI:0.00
PC:1f83e     Total:1275      MisBP:0   MisRate:0.00%    MPKI:0.00
PC:831be     Total:4      MisBP:0   MisRate:0.00%    MPKI:0.00
PC:2fe0a     Total:603      MisBP:0   MisRate:0.00%    MPKI:0.00
PC:16cc4     Total:3810      MisBP:0   MisRate:0.00%    MPKI:0.00
PC:93164     Total:29      MisBP:0   MisRate:0.00%    MPKI:0.00
PC:163d6     Total:45573      MisBP:0   MisRate:0.00%    MPKI:0.00
PC:3fdb0     Total:1      MisBP:0   MisRate:0.00%    MPKI:0.00
PC:1b9ca     Total:1123      MisBP:0   MisRate:0.00%    MPKI:0.00
PC:44ab6     Total:29      MisBP:0   MisRate:0.00%    MPKI:0.00
PC:831c2     Total:4      MisBP:0   MisRate:0.00%    MPKI:0.00
PC:2fe0e     Total:768      MisBP:0   MisRate:0.00%    MPKI:0.00
PC:3f550     Total:12      MisBP:0   MisRate:0.00%    MPKI:0.00
PC:7ceb2     Total:2      MisBP:0   MisRate:0.00%    MPKI:0.00
PC:4855c     Total:66      MisBP:0   MisRate:0.00%    MPKI:0.00
PC:47ec2     Total:4123      MisBP:0   MisRate:0.00%    MPKI:0.00
PC:3364c     Total:1      MisBP:0   MisRate:0.00%    MPKI:0.00
PC:33a7e     Total:20      MisBP:0   MisRate:0.00%    MPKI:0.00
PC:482f4     Total:101      MisBP:0   MisRate:0.00%    MPKI:0.00
PC:3dca0     Total:794      MisBP:0   MisRate:0.00%    MPKI:0.00
PC:1f63e     Total:3      MisBP:0   MisRate:0.00%    MPKI:0.00
PC:47ec6     Total:4123      MisBP:0   MisRate:0.00%    MPKI:0.00
PC:33650     Total:1      MisBP:0   MisRate:0.00%    MPKI:0.00
PC:3dca4     Total:794      MisBP:0   MisRate:0.00%    MPKI:0.00
PC:3dcaa     Total:751      MisBP:0   MisRate:0.00%    MPKI:0.00
PC:3dcae     Total:751      MisBP:0   MisRate:0.00%    MPKI:0.00
PC:71f36     Total:2      MisBP:0   MisRate:0.00%    MPKI:0.00
PC:1eb82     Total:136      MisBP:0   MisRate:0.00%    MPKI:0.00
PC:1f63a     Total:60      MisBP:0   MisRate:0.00%    MPKI:0.00
PC:3f48c     Total:51260      MisBP:0   MisRate:0.00%    MPKI:0.00
PC:15ab2     Total:53943      MisBP:0   MisRate:0.00%    MPKI:0.00
PC:71f3a     Total:2      MisBP:0   MisRate:0.00%    MPKI:0.00
PC:1eb86     Total:136      MisBP:0   MisRate:0.00%    MPKI:0.00
PC:48560     Total:66      MisBP:0   MisRate:0.00%    MPKI:0.00
PC:3f490     Total:50607      MisBP:0   MisRate:0.00%    MPKI:0.00
PC:15ab6     Total:54687      MisBP:0   MisRate:0.00%    MPKI:0.00
PC:53418     Total:514      MisBP:0   MisRate:0.00%    MPKI:0.00
PC:3e33e     Total:6379      MisBP:0   MisRate:0.00%    MPKI:0.00
PC:71f3e     Total:2      MisBP:0   MisRate:0.00%    MPKI:0.00
PC:48564     Total:25      MisBP:0   MisRate:0.00%    MPKI:0.00
PC:3e342     Total:6379      MisBP:0   MisRate:0.00%    MPKI:0.00
PC:47e96     Total:1621      MisBP:0   MisRate:0.00%    MPKI:0.00
PC:3dc2c     Total:6961      MisBP:0   MisRate:0.00%    MPKI:0.00
PC:3dc30     Total:6961      MisBP:0   MisRate:0.00%    MPKI:0.00
PC:3dc42     Total:6778      MisBP:0   MisRate:0.00%    MPKI:0.00
PC:3dc4c     Total:6778      MisBP:0   MisRate:0.00%    MPKI:0.00
PC:3dc50     Total:6778      MisBP:0   MisRate:0.00%    MPKI:0.00
PC:3dc58     Total:6722      MisBP:0   MisRate:0.00%    MPKI:0.00
PC:3dc5c     Total:6876      MisBP:0   MisRate:0.00%    MPKI:0.00
PC:1e4b2     Total:2      MisBP:0   MisRate:0.00%    MPKI:0.00
PC:47e8c     Total:1633      MisBP:0   MisRate:0.00%    MPKI:0.00
PC:3dc6a     Total:6154      MisBP:0   MisRate:0.00%    MPKI:0.00
PC:47e92     Total:1633      MisBP:0   MisRate:0.00%    MPKI:0.00
PC:3361c     Total:17      MisBP:0   MisRate:0.00%    MPKI:0.00
PC:71f46     Total:2      MisBP:0   MisRate:0.00%    MPKI:0.00
PC:33620     Total:17      MisBP:0   MisRate:0.00%    MPKI:0.00
PC:3dc74     Total:6151      MisBP:0   MisRate:0.00%    MPKI:0.00
PC:3dc7c     Total:6075      MisBP:0   MisRate:0.00%    MPKI:0.00
PC:3dc80     Total:7120      MisBP:0   MisRate:0.00%    MPKI:0.00
PC:1f626     Total:602      MisBP:0   MisRate:0.00%    MPKI:0.00
PC:5d444     Total:4      MisBP:0   MisRate:0.00%    MPKI:0.00
PC:33a6a     Total:12      MisBP:0   MisRate:0.00%    MPKI:0.00
PC:3dc8c     Total:7820      MisBP:0   MisRate:0.00%    MPKI:0.00
PC:1f636     Total:60      MisBP:0   MisRate:0.00%    MPKI:0.00
PC:33a7a     Total:20      MisBP:0   MisRate:0.00%    MPKI:0.00
PC:482f0     Total:101      MisBP:0   MisRate:0.00%    MPKI:0.00
PC:3dc9c     Total:794      MisBP:0   MisRate:0.00%    MPKI:0.00
PC:16e32     Total:2432      MisBP:0   MisRate:0.00%    MPKI:0.00
PC:1c4de     Total:5      MisBP:0   MisRate:0.00%    MPKI:0.00
PC:15cd4     Total:558      MisBP:0   MisRate:0.00%    MPKI:0.00
PC:3f6ae     Total:15795      MisBP:0   MisRate:0.00%    MPKI:0.00
PC:1c4e0     Total:5      MisBP:0   MisRate:0.00%    MPKI:0.00
PC:99272     Total:16      MisBP:0   MisRate:0.00%    MPKI:0.00
PC:1c4e4     Total:5      MisBP:0   MisRate:0.00%    MPKI:0.00
PC:3f6b4     Total:15846      MisBP:0   MisRate:0.00%    MPKI:0.00
PC:99274     Total:16      MisBP:0   MisRate:0.00%    MPKI:0.00
PC:1c4e6     Total:5      MisBP:0   MisRate:0.00%    MPKI:0.00
PC:99276     Total:1      MisBP:0   MisRate:0.00%    MPKI:0.00
PC:1c4e8     Total:5      MisBP:0   MisRate:0.00%    MPKI:0.00
PC:4080c     Total:30075      MisBP:0   MisRate:0.00%    MPKI:0.00
PC:9926c     Total:16      MisBP:0   MisRate:0.00%    MPKI:0.00
PC:15ce0     Total:474      MisBP:0   MisRate:0.00%    MPKI:0.00
PC:3f6ba     Total:15585      MisBP:0   MisRate:0.00%    MPKI:0.00
PC:40810     Total:30075      MisBP:0   MisRate:0.00%    MPKI:0.00
PC:16e36     Total:2381      MisBP:0   MisRate:0.00%    MPKI:0.00
PC:1c4f0     Total:5      MisBP:0   MisRate:0.00%    MPKI:0.00
PC:3f6c2     Total:15099      MisBP:0   MisRate:0.00%    MPKI:0.00
PC:40818     Total:20927      MisBP:0   MisRate:0.00%    MPKI:0.00
PC:4081c     Total:20927      MisBP:0   MisRate:0.00%    MPKI:0.00
PC:16e42     Total:1167      MisBP:0   MisRate:0.00%    MPKI:0.00
PC:15cf2     Total:402      MisBP:0   MisRate:0.00%    MPKI:0.00
PC:3f6cc     Total:15099      MisBP:0   MisRate:0.00%    MPKI:0.00
PC:1676a     Total:27239      MisBP:0   MisRate:0.00%    MPKI:0.00
PC:9925a     Total:16      MisBP:0   MisRate:0.00%    MPKI:0.00
PC:1eb92     Total:136      MisBP:0   MisRate:0.00%    MPKI:0.00
PC:15ac2     Total:43503      MisBP:0   MisRate:0.00%    MPKI:0.00
PC:53424     Total:14      MisBP:0   MisRate:0.00%    MPKI:0.00
PC:3e34a     Total:129      MisBP:0   MisRate:0.00%    MPKI:0.00
PC:71f54     Total:2      MisBP:0   MisRate:0.00%    MPKI:0.00
PC:3e358     Total:129      MisBP:0   MisRate:0.00%    MPKI:0.00
PC:3e366     Total:6293      MisBP:0   MisRate:0.00%    MPKI:0.00
PC:36f50     Total:962      MisBP:0   MisRate:0.00%    MPKI:0.00
PC:2cd4e     Total:17165      MisBP:0   MisRate:0.00%    MPKI:0.00
PC:6ab6c     Total:9      MisBP:0   MisRate:0.00%    MPKI:0.00
PC:41192     Total:3813      MisBP:0   MisRate:0.00%    MPKI:0.00
PC:36f70     Total:703      MisBP:0   MisRate:0.00%    MPKI:0.00
PC:1b5ec     Total:90      MisBP:0   MisRate:0.00%    MPKI:0.00
PC:1c4cc     Total:17311      MisBP:0   MisRate:0.00%    MPKI:0.00
PC:15cc6     Total:644      MisBP:0   MisRate:0.00%    MPKI:0.00
PC:3f6a0     Total:1487      MisBP:0   MisRate:0.00%    MPKI:0.00
PC:99260     Total:16      MisBP:0   MisRate:0.00%    MPKI:0.00
PC:1c4d4     Total:9062      MisBP:0   MisRate:0.00%    MPKI:0.00
PC:3f6a4     Total:18688      MisBP:0   MisRate:0.00%    MPKI:0.00
PC:99264     Total:16      MisBP:0   MisRate:0.00%    MPKI:0.00
PC:1c4d6     Total:5      MisBP:0   MisRate:0.00%    MPKI:0.00
PC:16e1e     Total:2531      MisBP:0   MisRate:0.00%    MPKI:0.00
PC:99266     Total:16      MisBP:0   MisRate:0.00%    MPKI:0.00
PC:1c4d8     Total:5      MisBP:0   MisRate:0.00%    MPKI:0.00
PC:1c4da     Total:5      MisBP:0   MisRate:0.00%    MPKI:0.00
PC:32c5a     Total:12      MisBP:0   MisRate:0.00%    MPKI:0.00
PC:5c61e     Total:56      MisBP:0   MisRate:0.00%    MPKI:0.00
PC:32c44     Total:12      MisBP:0   MisRate:0.00%    MPKI:0.00
PC:5c620     Total:56      MisBP:0   MisRate:0.00%    MPKI:0.00
PC:32c46     Total:12      MisBP:0   MisRate:0.00%    MPKI:0.00
PC:5c624     Total:56      MisBP:0   MisRate:0.00%    MPKI:0.00
PC:5c626     Total:280      MisBP:0   MisRate:0.00%    MPKI:0.00
PC:32c4c     Total:12      MisBP:0   MisRate:0.00%    MPKI:0.00
PC:5c62a     Total:56      MisBP:0   MisRate:0.00%    MPKI:0.00
PC:32c50     Total:12      MisBP:0   MisRate:0.00%    MPKI:0.00
PC:5c62e     Total:15      MisBP:0   MisRate:0.00%    MPKI:0.00
PC:32c54     Total:12      MisBP:0   MisRate:0.00%    MPKI:0.00
PC:32c58     Total:12      MisBP:0   MisRate:0.00%    MPKI:0.00
PC:5c634     Total:1      MisBP:0   MisRate:0.00%    MPKI:0.00
PC:98f88     Total:161      MisBP:0   MisRate:0.00%    MPKI:0.00
PC:32c5c     Total:12      MisBP:0   MisRate:0.00%    MPKI:0.00
PC:32c60     Total:12      MisBP:0   MisRate:0.00%    MPKI:0.00
PC:5c63c     Total:1      MisBP:0   MisRate:0.00%    MPKI:0.00
PC:32c62     Total:12      MisBP:0   MisRate:0.00%    MPKI:0.00
PC:5c644     Total:3      MisBP:0   MisRate:0.00%    MPKI:0.00
PC:32c6a     Total:1      MisBP:0   MisRate:0.00%    MPKI:0.00
PC:32c6e     Total:1      MisBP:0   MisRate:0.00%    MPKI:0.00
PC:32c72     Total:1      MisBP:0   MisRate:0.00%    MPKI:0.00
PC:32c76     Total:1      MisBP:0   MisRate:0.00%    MPKI:0.00
PC:5c654     Total:6      MisBP:0   MisRate:0.00%    MPKI:0.00
PC:32c7a     Total:1      MisBP:0   MisRate:0.00%    MPKI:0.00
PC:32cfc     Total:13      MisBP:0   MisRate:0.00%    MPKI:0.00
PC:995e6     Total:4      MisBP:0   MisRate:0.00%    MPKI:0.00
PC:990ae     Total:16      MisBP:0   MisRate:0.00%    MPKI:0.00
PC:990b8     Total:16      MisBP:0   MisRate:0.00%    MPKI:0.00
PC:46212     Total:192      MisBP:0   MisRate:0.00%    MPKI:0.00
PC:1c838     Total:51914      MisBP:0   MisRate:0.00%    MPKI:0.00
PC:995c6     Total:17      MisBP:0   MisRate:0.00%    MPKI:0.00
PC:4621c     Total:112      MisBP:0   MisRate:0.00%    MPKI:0.00
PC:1c842     Total:33269      MisBP:0   MisRate:0.00%    MPKI:0.00
PC:46228     Total:1      MisBP:0   MisRate:0.00%    MPKI:0.00
PC:1c84e     Total:205164      MisBP:0   MisRate:0.00%    MPKI:0.00
PC:995dc     Total:8      MisBP:0   MisRate:0.00%    MPKI:0.00
PC:46232     Total:108      MisBP:0   MisRate:0.00%    MPKI:0.00
PC:1c858     Total:58335      MisBP:0   MisRate:0.00%    MPKI:0.00
PC:31b20     Total:2295      MisBP:0   MisRate:0.00%    MPKI:0.00
PC:995f0     Total:4      MisBP:0   MisRate:0.00%    MPKI:0.00
PC:46248     Total:565      MisBP:0   MisRate:0.00%    MPKI:0.00
PC:1c86e     Total:56758      MisBP:0   MisRate:0.00%    MPKI:0.00
PC:995fc     Total:4      MisBP:0   MisRate:0.00%    MPKI:0.00
PC:99336     Total:25      MisBP:0   MisRate:0.00%    MPKI:0.00
PC:1c5ae     Total:22      MisBP:0   MisRate:0.00%    MPKI:0.00
PC:9933c     Total:25      MisBP:0   MisRate:0.00%    MPKI:0.00
PC:99342     Total:24      MisBP:0   MisRate:0.00%    MPKI:0.00
PC:99346     Total:24      MisBP:0   MisRate:0.00%    MPKI:0.00
PC:99350     Total:24      MisBP:0   MisRate:0.00%    MPKI:0.00
PC:99368     Total:1      MisBP:0   MisRate:0.00%    MPKI:0.00
PC:1c1fa     Total:87070      MisBP:0   MisRate:0.00%    MPKI:0.00
PC:84f0c     Total:431      MisBP:0   MisRate:0.00%    MPKI:0.00
PC:32d26     Total:3      MisBP:0   MisRate:0.00%    MPKI:0.00
PC:32d28     Total:3      MisBP:0   MisRate:0.00%    MPKI:0.00
PC:31b4c     Total:307      MisBP:0   MisRate:0.00%    MPKI:0.00
PC:84f00     Total:431      MisBP:0   MisRate:0.00%    MPKI:0.00
PC:32d2c     Total:3      MisBP:0   MisRate:0.00%    MPKI:0.00
PC:31b50     Total:295      MisBP:0   MisRate:0.00%    MPKI:0.00
PC:84f04     Total:431      MisBP:0   MisRate:0.00%    MPKI:0.00
PC:32d2e     Total:3      MisBP:0   MisRate:0.00%    MPKI:0.00
PC:84f06     Total:431      MisBP:0   MisRate:0.00%    MPKI:0.00
PC:32d32     Total:3      MisBP:0   MisRate:0.00%    MPKI:0.00
PC:84f0a     Total:431      MisBP:0   MisRate:0.00%    MPKI:0.00
PC:32d34     Total:3      MisBP:0   MisRate:0.00%    MPKI:0.00
PC:31b58     Total:2316      MisBP:0   MisRate:0.00%    MPKI:0.00
PC:84efc     Total:462      MisBP:0   MisRate:0.00%    MPKI:0.00
PC:32d38     Total:3      MisBP:0   MisRate:0.00%    MPKI:0.00
PC:31b5c     Total:2316      MisBP:0   MisRate:0.00%    MPKI:0.00
PC:84f10     Total:431      MisBP:0   MisRate:0.00%    MPKI:0.00
PC:32d3a     Total:3      MisBP:0   MisRate:0.00%    MPKI:0.00
PC:32d3c     Total:3      MisBP:0   MisRate:0.00%    MPKI:0.00
PC:84f14     Total:431      MisBP:0   MisRate:0.00%    MPKI:0.00
PC:3377e     Total:7      MisBP:0   MisRate:0.00%    MPKI:0.00
PC:33782     Total:7      MisBP:0   MisRate:0.00%    MPKI:0.00
PC:33784     Total:7      MisBP:0   MisRate:0.00%    MPKI:0.00
PC:33788     Total:7      MisBP:0   MisRate:0.00%    MPKI:0.00
PC:3378a     Total:7      MisBP:0   MisRate:0.00%    MPKI:0.00
PC:3378e     Total:4      MisBP:0   MisRate:0.00%    MPKI:0.00
PC:32d10     Total:7      MisBP:0   MisRate:0.00%    MPKI:0.00
PC:84ed4     Total:478      MisBP:0   MisRate:0.00%    MPKI:0.00
PC:32cfe     Total:13      MisBP:0   MisRate:0.00%    MPKI:0.00
PC:31b22     Total:2295      MisBP:0   MisRate:0.00%    MPKI:0.00
PC:84ed6     Total:478      MisBP:0   MisRate:0.00%    MPKI:0.00
PC:32d02     Total:13      MisBP:0   MisRate:0.00%    MPKI:0.00
PC:31b26     Total:2295      MisBP:0   MisRate:0.00%    MPKI:0.00
PC:84eda     Total:471      MisBP:0   MisRate:0.00%    MPKI:0.00
PC:32d06     Total:13      MisBP:0   MisRate:0.00%    MPKI:0.00
PC:32d08     Total:13      MisBP:0   MisRate:0.00%    MPKI:0.00
PC:84ee0     Total:471      MisBP:0   MisRate:0.00%    MPKI:0.00
PC:32d0e     Total:7      MisBP:0   MisRate:0.00%    MPKI:0.00
PC:84ee6     Total:471      MisBP:0   MisRate:0.00%    MPKI:0.00
PC:1c320     Total:6232      MisBP:0   MisRate:0.00%    MPKI:0.00
PC:32d14     Total:7      MisBP:0   MisRate:0.00%    MPKI:0.00
PC:31b38     Total:30389      MisBP:0   MisRate:0.00%    MPKI:0.00
PC:84eec     Total:471      MisBP:0   MisRate:0.00%    MPKI:0.00
PC:32d18     Total:7      MisBP:0   MisRate:0.00%    MPKI:0.00
PC:31b3c     Total:588      MisBP:0   MisRate:0.00%    MPKI:0.00
PC:84ef0     Total:471      MisBP:0   MisRate:0.00%    MPKI:0.00
PC:32d1a     Total:7      MisBP:0   MisRate:0.00%    MPKI:0.00
PC:32d1e     Total:7      MisBP:0   MisRate:0.00%    MPKI:0.00
PC:84ef6     Total:462      MisBP:0   MisRate:0.00%    MPKI:0.00
PC:32d20     Total:7      MisBP:0   MisRate:0.00%    MPKI:0.00
PC:32d24     Total:3      MisBP:0   MisRate:0.00%    MPKI:0.00
PC:31b48     Total:307      MisBP:0   MisRate:0.00%    MPKI:0.00
PC:98ebc     Total:6      MisBP:0   MisRate:0.00%    MPKI:0.00
PC:9baa8     Total:2      MisBP:0   MisRate:0.00%    MPKI:0.00
PC:9baaa     Total:2      MisBP:0   MisRate:0.00%    MPKI:0.00
PC:9baae     Total:1      MisBP:0   MisRate:0.00%    MPKI:0.00
PC:9bab0     Total:3      MisBP:0   MisRate:0.00%    MPKI:0.00
PC:1c0f6     Total:31862      MisBP:0   MisRate:0.00%    MPKI:0.00
PC:98e84     Total:16      MisBP:0   MisRate:0.00%    MPKI:0.00
PC:98e90     Total:16      MisBP:0   MisRate:0.00%    MPKI:0.00
PC:1c114     Total:198788      MisBP:0   MisRate:0.00%    MPKI:0.00
PC:98ea2     Total:16      MisBP:0   MisRate:0.00%    MPKI:0.00
PC:1c11c     Total:192844      MisBP:0   MisRate:0.00%    MPKI:0.00
PC:98eaa     Total:16      MisBP:0   MisRate:0.00%    MPKI:0.00
PC:1c12a     Total:192944      MisBP:0   MisRate:0.00%    MPKI:0.00
PC:98eb8     Total:16      MisBP:0   MisRate:0.00%    MPKI:0.00
PC:9baa4     Total:19      MisBP:0   MisRate:0.00%    MPKI:0.00
PC:98ec0     Total:6      MisBP:0   MisRate:0.00%    MPKI:0.00
PC:98ece     Total:6      MisBP:0   MisRate:0.00%    MPKI:0.00
PC:1c14a     Total:94372      MisBP:0   MisRate:0.00%    MPKI:0.00
PC:98ed8     Total:6      MisBP:0   MisRate:0.00%    MPKI:0.00
PC:6f506     Total:4      MisBP:0   MisRate:0.00%    MPKI:0.00
PC:98ee0     Total:6      MisBP:0   MisRate:0.00%    MPKI:0.00
PC:6f50a     Total:4      MisBP:0   MisRate:0.00%    MPKI:0.00
PC:98ee4     Total:6      MisBP:0   MisRate:0.00%    MPKI:0.00
PC:1c160     Total:42400      MisBP:0   MisRate:0.00%    MPKI:0.00
PC:98eee     Total:6      MisBP:0   MisRate:0.00%    MPKI:0.00
PC:6f51a     Total:4      MisBP:0   MisRate:0.00%    MPKI:0.00
PC:98ef4     Total:6      MisBP:0   MisRate:0.00%    MPKI:0.00
PC:9ba7e     Total:7      MisBP:0   MisRate:0.00%    MPKI:0.00
PC:9ba5e     Total:7      MisBP:0   MisRate:0.00%    MPKI:0.00
PC:9ba60     Total:7      MisBP:0   MisRate:0.00%    MPKI:0.00
PC:9ba62     Total:7      MisBP:0   MisRate:0.00%    MPKI:0.00
PC:9ba64     Total:7      MisBP:0   MisRate:0.00%    MPKI:0.00
PC:9ba66     Total:7      MisBP:0   MisRate:0.00%    MPKI:0.00
PC:9ba6a     Total:7      MisBP:0   MisRate:0.00%    MPKI:0.00
PC:9ba6c     Total:7      MisBP:0   MisRate:0.00%    MPKI:0.00
PC:9ba6e     Total:7      MisBP:0   MisRate:0.00%    MPKI:0.00
PC:9ba70     Total:7      MisBP:0   MisRate:0.00%    MPKI:0.00
PC:9ba74     Total:7      MisBP:0   MisRate:0.00%    MPKI:0.00
PC:9ba76     Total:7      MisBP:0   MisRate:0.00%    MPKI:0.00
PC:9ba7a     Total:7      MisBP:0   MisRate:0.00%    MPKI:0.00
PC:1c1fe     Total:81668      MisBP:0   MisRate:0.00%    MPKI:0.00
PC:9ba80     Total:14      MisBP:0   MisRate:0.00%    MPKI:0.00
PC:9ba84     Total:7      MisBP:0   MisRate:0.00%    MPKI:0.00
PC:9ba88     Total:20      MisBP:0   MisRate:0.00%    MPKI:0.00
PC:9ba8a     Total:20      MisBP:0   MisRate:0.00%    MPKI:0.00
PC:9ba8e     Total:20      MisBP:0   MisRate:0.00%    MPKI:0.00
PC:9ba90     Total:20      MisBP:0   MisRate:0.00%    MPKI:0.00
PC:9ba92     Total:20      MisBP:0   MisRate:0.00%    MPKI:0.00
PC:9ba96     Total:20      MisBP:0   MisRate:0.00%    MPKI:0.00
PC:9ba9a     Total:40      MisBP:0   MisRate:0.00%    MPKI:0.00
PC:9ba9e     Total:19      MisBP:0   MisRate:0.00%    MPKI:0.00
PC:9baa0     Total:19      MisBP:0   MisRate:0.00%    MPKI:0.00
PC:9baa2     Total:19      MisBP:0   MisRate:0.00%    MPKI:0.00
PC:1c288     Total:32253      MisBP:0   MisRate:0.00%    MPKI:0.00
PC:98fd2     Total:23      MisBP:0   MisRate:0.00%    MPKI:0.00
PC:1c258     Total:27503      MisBP:0   MisRate:0.00%    MPKI:0.00
PC:98fe6     Total:22      MisBP:0   MisRate:0.00%    MPKI:0.00
PC:1c260     Total:42019      MisBP:0   MisRate:0.00%    MPKI:0.00
PC:98fee     Total:11      MisBP:0   MisRate:0.00%    MPKI:0.00
PC:98ffe     Total:11      MisBP:0   MisRate:0.00%    MPKI:0.00
PC:4618c     Total:364      MisBP:0   MisRate:0.00%    MPKI:0.00
PC:99540     Total:17      MisBP:0   MisRate:0.00%    MPKI:0.00
PC:9955c     Total:6      MisBP:0   MisRate:0.00%    MPKI:0.00
PC:1c7d2     Total:87884      MisBP:0   MisRate:0.00%    MPKI:0.00
PC:99560     Total:6      MisBP:0   MisRate:0.00%    MPKI:0.00
PC:9900e     Total:9      MisBP:0   MisRate:0.00%    MPKI:0.00
PC:1c244     Total:24588      MisBP:0   MisRate:0.00%    MPKI:0.00
PC:99016     Total:9      MisBP:0   MisRate:0.00%    MPKI:0.00
PC:1c28e     Total:32552      MisBP:0   MisRate:0.00%    MPKI:0.00
PC:9901c     Total:9      MisBP:0   MisRate:0.00%    MPKI:0.00
PC:1c29c     Total:29009      MisBP:0   MisRate:0.00%    MPKI:0.00
PC:9902a     Total:9      MisBP:0   MisRate:0.00%    MPKI:0.00
PC:1c2a0     Total:29008      MisBP:0   MisRate:0.00%    MPKI:0.00
PC:9902e     Total:9      MisBP:0   MisRate:0.00%    MPKI:0.00
PC:99036     Total:26      MisBP:0   MisRate:0.00%    MPKI:0.00
PC:46182     Total:413      MisBP:0   MisRate:0.00%    MPKI:0.00
PC:99536     Total:16      MisBP:0   MisRate:0.00%    MPKI:0.00
PC:9953c     Total:16      MisBP:0   MisRate:0.00%    MPKI:0.00
PC:990aa     Total:16      MisBP:0   MisRate:0.00%    MPKI:0.00
PC:98fb6     Total:22      MisBP:0   MisRate:0.00%    MPKI:0.00
PC:98f8c     Total:16      MisBP:0   MisRate:0.00%    MPKI:0.00
PC:98f90     Total:16      MisBP:0   MisRate:0.00%    MPKI:0.00
PC:1c206     Total:30144      MisBP:0   MisRate:0.00%    MPKI:0.00
PC:98f94     Total:16      MisBP:0   MisRate:0.00%    MPKI:0.00
PC:1c20e     Total:30141      MisBP:0   MisRate:0.00%    MPKI:0.00
PC:98f9c     Total:6      MisBP:0   MisRate:0.00%    MPKI:0.00
PC:1c216     Total:30137      MisBP:0   MisRate:0.00%    MPKI:0.00
PC:98fa4     Total:6      MisBP:0   MisRate:0.00%    MPKI:0.00
PC:98fae     Total:6      MisBP:0   MisRate:0.00%    MPKI:0.00
PC:1c224     Total:27157      MisBP:0   MisRate:0.00%    MPKI:0.00
PC:98fb2     Total:6      MisBP:0   MisRate:0.00%    MPKI:0.00
PC:1c228     Total:27538      MisBP:0   MisRate:0.00%    MPKI:0.00
PC:33790     Total:4      MisBP:0   MisRate:0.00%    MPKI:0.00
PC:1c4ba     Total:20297      MisBP:0   MisRate:0.00%    MPKI:0.00
PC:99248     Total:16      MisBP:0   MisRate:0.00%    MPKI:0.00
PC:1c4c6     Total:17314      MisBP:0   MisRate:0.00%    MPKI:0.00
PC:99254     Total:16      MisBP:0   MisRate:0.00%    MPKI:0.00
PC:1c4ca     Total:17311      MisBP:0   MisRate:0.00%    MPKI:0.00
PC:99258     Total:16      MisBP:0   MisRate:0.00%    MPKI:0.00
PC:1c4d0     Total:17310      MisBP:0   MisRate:0.00%    MPKI:0.00
PC:9925e     Total:16      MisBP:0   MisRate:0.00%    MPKI:0.00
PC:9927a     Total:1      MisBP:0   MisRate:0.00%    MPKI:0.00
PC:3282c     Total:8      MisBP:0   MisRate:0.00%    MPKI:0.00
PC:1c240     Total:24588      MisBP:0   MisRate:0.00%    MPKI:0.00
PC:98fce     Total:23      MisBP:0   MisRate:0.00%    MPKI:0.00
PC:3067a     Total:9832      MisBP:0   MisRate:0.00%    MPKI:0.00
PC:970b4     Total:98      MisBP:0   MisRate:0.00%    MPKI:0.00
PC:3066a     Total:340      MisBP:0   MisRate:0.00%    MPKI:0.00
PC:970b8     Total:82      MisBP:0   MisRate:0.00%    MPKI:0.00
PC:3066c     Total:340      MisBP:0   MisRate:0.00%    MPKI:0.00
PC:970ba     Total:82      MisBP:0   MisRate:0.00%    MPKI:0.00
PC:3066e     Total:9835      MisBP:0   MisRate:0.00%    MPKI:0.00
PC:970bc     Total:82      MisBP:0   MisRate:0.00%    MPKI:0.00
PC:30672     Total:9835      MisBP:0   MisRate:0.00%    MPKI:0.00
PC:970c0     Total:78      MisBP:0   MisRate:0.00%    MPKI:0.00
PC:30674     Total:9835      MisBP:0   MisRate:0.00%    MPKI:0.00
PC:970c2     Total:78      MisBP:0   MisRate:0.00%    MPKI:0.00
PC:30676     Total:9832      MisBP:0   MisRate:0.00%    MPKI:0.00
PC:970c4     Total:78      MisBP:0   MisRate:0.00%    MPKI:0.00
PC:30666     Total:340      MisBP:0   MisRate:0.00%    MPKI:0.00
PC:970c8     Total:78      MisBP:0   MisRate:0.00%    MPKI:0.00
PC:3067e     Total:9487      MisBP:0   MisRate:0.00%    MPKI:0.00
PC:970cc     Total:78      MisBP:0   MisRate:0.00%    MPKI:0.00
PC:30682     Total:9486      MisBP:0   MisRate:0.00%    MPKI:0.00
PC:30686     Total:9484      MisBP:0   MisRate:0.00%    MPKI:0.00
PC:970d4     Total:66      MisBP:0   MisRate:0.00%    MPKI:0.00
PC:3068a     Total:9484      MisBP:0   MisRate:0.00%    MPKI:0.00
PC:970d8     Total:66      MisBP:0   MisRate:0.00%    MPKI:0.00
PC:3068c     Total:9484      MisBP:0   MisRate:0.00%    MPKI:0.00
PC:970da     Total:66      MisBP:0   MisRate:0.00%    MPKI:0.00
PC:3068e     Total:9483      MisBP:0   MisRate:0.00%    MPKI:0.00
PC:30692     Total:9480      MisBP:0   MisRate:0.00%    MPKI:0.00
PC:30632     Total:31      MisBP:0   MisRate:0.00%    MPKI:0.00
PC:305ec     Total:34      MisBP:0   MisRate:0.00%    MPKI:0.00
PC:305f0     Total:31      MisBP:0   MisRate:0.00%    MPKI:0.00
PC:30604     Total:30      MisBP:0   MisRate:0.00%    MPKI:0.00
PC:3060a     Total:30      MisBP:0   MisRate:0.00%    MPKI:0.00
PC:3060e     Total:31      MisBP:0   MisRate:0.00%    MPKI:0.00
PC:30612     Total:31      MisBP:0   MisRate:0.00%    MPKI:0.00
PC:30616     Total:31      MisBP:0   MisRate:0.00%    MPKI:0.00
PC:3061a     Total:31      MisBP:0   MisRate:0.00%    MPKI:0.00
PC:30622     Total:31      MisBP:0   MisRate:0.00%    MPKI:0.00
PC:30626     Total:31      MisBP:0   MisRate:0.00%    MPKI:0.00
PC:3062a     Total:31      MisBP:0   MisRate:0.00%    MPKI:0.00
PC:3062e     Total:31      MisBP:0   MisRate:0.00%    MPKI:0.00
PC:30698     Total:9195      MisBP:0   MisRate:0.00%    MPKI:0.00
PC:3063c     Total:400      MisBP:0   MisRate:0.00%    MPKI:0.00
PC:30640     Total:360      MisBP:0   MisRate:0.00%    MPKI:0.00
PC:3064c     Total:359      MisBP:0   MisRate:0.00%    MPKI:0.00
PC:30656     Total:355      MisBP:0   MisRate:0.00%    MPKI:0.00
PC:970a4     Total:98      MisBP:0   MisRate:0.00%    MPKI:0.00
PC:30658     Total:340      MisBP:0   MisRate:0.00%    MPKI:0.00
PC:970a6     Total:98      MisBP:0   MisRate:0.00%    MPKI:0.00
PC:3065e     Total:340      MisBP:0   MisRate:0.00%    MPKI:0.00
PC:970ac     Total:98      MisBP:0   MisRate:0.00%    MPKI:0.00
PC:30660     Total:340      MisBP:0   MisRate:0.00%    MPKI:0.00
PC:30664     Total:340      MisBP:0   MisRate:0.00%    MPKI:0.00
PC:970b2     Total:98      MisBP:0   MisRate:0.00%    MPKI:0.00
PC:306d8     Total:1646      MisBP:0   MisRate:0.00%    MPKI:0.00
PC:306c8     Total:3287      MisBP:0   MisRate:0.00%    MPKI:0.00
PC:1be52     Total:38      MisBP:0   MisRate:0.00%    MPKI:0.00
PC:97116     Total:29      MisBP:0   MisRate:0.00%    MPKI:0.00
PC:306cc     Total:1648      MisBP:0   MisRate:0.00%    MPKI:0.00
PC:1be56     Total:38      MisBP:0   MisRate:0.00%    MPKI:0.00
PC:9711a     Total:29      MisBP:0   MisRate:0.00%    MPKI:0.00
PC:306ce     Total:1648      MisBP:0   MisRate:0.00%    MPKI:0.00
PC:9711c     Total:29      MisBP:0   MisRate:0.00%    MPKI:0.00
PC:306d0     Total:1645      MisBP:0   MisRate:0.00%    MPKI:0.00
PC:1be5a     Total:36      MisBP:0   MisRate:0.00%    MPKI:0.00
PC:9711e     Total:29      MisBP:0   MisRate:0.00%    MPKI:0.00
PC:306d4     Total:1646      MisBP:0   MisRate:0.00%    MPKI:0.00
PC:1be5e     Total:36      MisBP:0   MisRate:0.00%    MPKI:0.00
PC:97114     Total:29      MisBP:0   MisRate:0.00%    MPKI:0.00
PC:1be62     Total:95      MisBP:0   MisRate:0.00%    MPKI:0.00
PC:306dc     Total:4898      MisBP:0   MisRate:0.00%    MPKI:0.00
PC:1be66     Total:95      MisBP:0   MisRate:0.00%    MPKI:0.00
PC:306e0     Total:1626      MisBP:0   MisRate:0.00%    MPKI:0.00
PC:1be6a     Total:95      MisBP:0   MisRate:0.00%    MPKI:0.00
PC:306e2     Total:1626      MisBP:0   MisRate:0.00%    MPKI:0.00
PC:306e4     Total:1622      MisBP:0   MisRate:0.00%    MPKI:0.00
PC:1be6e     Total:95      MisBP:0   MisRate:0.00%    MPKI:0.00
PC:306e6     Total:9818      MisBP:0   MisRate:0.00%    MPKI:0.00
PC:306e8     Total:9815      MisBP:0   MisRate:0.00%    MPKI:0.00
PC:1be72     Total:95      MisBP:0   MisRate:0.00%    MPKI:0.00
PC:1be74     Total:95      MisBP:0   MisRate:0.00%    MPKI:0.00
PC:306ba     Total:8991      MisBP:0   MisRate:0.00%    MPKI:0.00
PC:3069c     Total:9195      MisBP:0   MisRate:0.00%    MPKI:0.00
PC:306a0     Total:9195      MisBP:0   MisRate:0.00%    MPKI:0.00
PC:306a4     Total:9194      MisBP:0   MisRate:0.00%    MPKI:0.00
PC:306b0     Total:8998      MisBP:0   MisRate:0.00%    MPKI:0.00
PC:1be3a     Total:110      MisBP:0   MisRate:0.00%    MPKI:0.00
PC:306b4     Total:8996      MisBP:0   MisRate:0.00%    MPKI:0.00
PC:1be3e     Total:110      MisBP:0   MisRate:0.00%    MPKI:0.00
PC:97102     Total:30      MisBP:0   MisRate:0.00%    MPKI:0.00
PC:306b6     Total:8995      MisBP:0   MisRate:0.00%    MPKI:0.00
PC:1be40     Total:103      MisBP:0   MisRate:0.00%    MPKI:0.00
PC:306b8     Total:8995      MisBP:0   MisRate:0.00%    MPKI:0.00
PC:97106     Total:30      MisBP:0   MisRate:0.00%    MPKI:0.00
PC:305e4     Total:34      MisBP:0   MisRate:0.00%    MPKI:0.00
PC:1be44     Total:38      MisBP:0   MisRate:0.00%    MPKI:0.00
PC:97108     Total:30      MisBP:0   MisRate:0.00%    MPKI:0.00
PC:306bc     Total:8990      MisBP:0   MisRate:0.00%    MPKI:0.00
PC:9710a     Total:30      MisBP:0   MisRate:0.00%    MPKI:0.00
PC:306be     Total:8471      MisBP:0   MisRate:0.00%    MPKI:0.00
PC:1be48     Total:38      MisBP:0   MisRate:0.00%    MPKI:0.00
PC:9710c     Total:30      MisBP:0   MisRate:0.00%    MPKI:0.00
PC:1be4c     Total:38      MisBP:0   MisRate:0.00%    MPKI:0.00
PC:97110     Total:29      MisBP:0   MisRate:0.00%    MPKI:0.00
PC:306c4     Total:8356      MisBP:0   MisRate:0.00%    MPKI:0.00
PC:97112     Total:29      MisBP:0   MisRate:0.00%    MPKI:0.00
PC:1be50     Total:38      MisBP:0   MisRate:0.00%    MPKI:0.00
PC:990e8     Total:2      MisBP:0   MisRate:0.00%    MPKI:0.00
PC:99074     Total:10      MisBP:0   MisRate:0.00%    MPKI:0.00
PC:99078     Total:10      MisBP:0   MisRate:0.00%    MPKI:0.00
PC:1c302     Total:6418      MisBP:0   MisRate:0.00%    MPKI:0.00
PC:99090     Total:3      MisBP:0   MisRate:0.00%    MPKI:0.00
PC:1c308     Total:6266      MisBP:0   MisRate:0.00%    MPKI:0.00
PC:99096     Total:3      MisBP:0   MisRate:0.00%    MPKI:0.00
PC:9909a     Total:3      MisBP:0   MisRate:0.00%    MPKI:0.00
PC:990c2     Total:2      MisBP:0   MisRate:0.00%    MPKI:0.00
PC:1c350     Total:13614      MisBP:0   MisRate:0.00%    MPKI:0.00
PC:990de     Total:2      MisBP:0   MisRate:0.00%    MPKI:0.00
PC:1c354     Total:13592      MisBP:0   MisRate:0.00%    MPKI:0.00
PC:990e2     Total:2      MisBP:0   MisRate:0.00%    MPKI:0.00
PC:1c35a     Total:13395      MisBP:0   MisRate:0.00%    MPKI:0.00
PC:99070     Total:10      MisBP:0   MisRate:0.00%    MPKI:0.00
PC:36ffe     Total:6      MisBP:0   MisRate:0.00%    MPKI:0.00
PC:37002     Total:6      MisBP:0   MisRate:0.00%    MPKI:0.00
PC:37004     Total:6      MisBP:0   MisRate:0.00%    MPKI:0.00
PC:37006     Total:6      MisBP:0   MisRate:0.00%    MPKI:0.00
PC:3700a     Total:6      MisBP:0   MisRate:0.00%    MPKI:0.00
PC:3700c     Total:6      MisBP:0   MisRate:0.00%    MPKI:0.00
PC:37010     Total:6      MisBP:0   MisRate:0.00%    MPKI:0.00
PC:32a00     Total:1      MisBP:0   MisRate:0.00%    MPKI:0.00
PC:32a02     Total:1      MisBP:0   MisRate:0.00%    MPKI:0.00
PC:32a04     Total:1      MisBP:0   MisRate:0.00%    MPKI:0.00
PC:32a16     Total:1      MisBP:0   MisRate:0.00%    MPKI:0.00
PC:32a1c     Total:1      MisBP:0   MisRate:0.00%    MPKI:0.00
PC:970f8     Total:580      MisBP:0   MisRate:0.00%    MPKI:0.00
PC:33792     Total:4      MisBP:0   MisRate:0.00%    MPKI:0.00
PC:33796     Total:4      MisBP:0   MisRate:0.00%    MPKI:0.00
PC:33798     Total:4      MisBP:0   MisRate:0.00%    MPKI:0.00
PC:3379a     Total:4      MisBP:0   MisRate:0.00%    MPKI:0.00
PC:3379e     Total:4      MisBP:0   MisRate:0.00%    MPKI:0.00
PC:337a0     Total:4      MisBP:0   MisRate:0.00%    MPKI:0.00
PC:337a2     Total:4      MisBP:0   MisRate:0.00%    MPKI:0.00
PC:970f4     Total:2910      MisBP:0   MisRate:0.00%    MPKI:0.00
PC:1be30     Total:575      MisBP:0   MisRate:0.00%    MPKI:0.00
PC:970f6     Total:582      MisBP:0   MisRate:0.00%    MPKI:0.00
PC:306a8     Total:9194      MisBP:0   MisRate:0.00%    MPKI:0.00
PC:1be32     Total:115      MisBP:0   MisRate:0.00%    MPKI:0.00
PC:32a20     Total:1      MisBP:0   MisRate:0.00%    MPKI:0.00
PC:306aa     Total:9194      MisBP:0   MisRate:0.00%    MPKI:0.00
PC:970fa     Total:580      MisBP:0   MisRate:0.00%    MPKI:0.00
PC:306ac     Total:9194      MisBP:0   MisRate:0.00%    MPKI:0.00
PC:1be36     Total:115      MisBP:0   MisRate:0.00%    MPKI:0.00
PC:970fc     Total:326      MisBP:0   MisRate:0.00%    MPKI:0.00
PC:306ae     Total:9194      MisBP:0   MisRate:0.00%    MPKI:0.00
[...]
PC:3c7b8     Total:83819      MisBP:5826   MisRate:6.95%    MPKI:0.02
PC:40916     Total:29016      MisBP:5898   MisRate:20.33%    MPKI:0.02
PC:3ec20     Total:31413      MisBP:5917   MisRate:18.84%    MPKI:0.02
PC:19270     Total:74218      MisBP:5979   MisRate:8.06%    MPKI:0.02
PC:18f70     Total:70760      MisBP:6053   MisRate:8.55%    MPKI:0.02
PC:2cc8c     Total:58948      MisBP:6061   MisRate:10.28%    MPKI:0.02
PC:1927e     Total:72761      MisBP:6091   MisRate:8.37%    MPKI:0.02
PC:40b2c     Total:145546      MisBP:6145   MisRate:4.22%    MPKI:0.02
PC:15e66     Total:30898      MisBP:6163   MisRate:19.95%    MPKI:0.02
PC:28d48     Total:61233      MisBP:6169   MisRate:10.07%    MPKI:0.02
PC:3ce3c     Total:62195      MisBP:6197   MisRate:9.96%    MPKI:0.02
PC:3c878     Total:56059      MisBP:6233   MisRate:11.12%    MPKI:0.02
PC:1a900     Total:163682      MisBP:6248   MisRate:3.82%    MPKI:0.02
PC:162d6     Total:39938      MisBP:6265   MisRate:15.69%    MPKI:0.02
PC:19364     Total:41199      MisBP:6286   MisRate:15.26%    MPKI:0.02
PC:2cc9c     Total:69612      MisBP:6286   MisRate:9.03%    MPKI:0.02
PC:15e30     Total:26434      MisBP:6294   MisRate:23.81%    MPKI:0.02
PC:192ea     Total:84320      MisBP:6359   MisRate:7.54%    MPKI:0.02
PC:162e0     Total:44478      MisBP:6385   MisRate:14.36%    MPKI:0.02
PC:164c6     Total:39716      MisBP:6449   MisRate:16.24%    MPKI:0.02
PC:17db0     Total:94465      MisBP:6494   MisRate:6.87%    MPKI:0.02
PC:3ea00     Total:16835      MisBP:6554   MisRate:38.93%    MPKI:0.02
PC:19a5e     Total:45284      MisBP:6563   MisRate:14.49%    MPKI:0.02
PC:3e832     Total:37434      MisBP:6644   MisRate:17.75%    MPKI:0.02
PC:41212     Total:23747      MisBP:6691   MisRate:28.18%    MPKI:0.02
PC:40b66     Total:25958      MisBP:6726   MisRate:25.91%    MPKI:0.02
PC:1b82c     Total:55889      MisBP:6726   MisRate:12.03%    MPKI:0.02
PC:15bd2     Total:39875      MisBP:6763   MisRate:16.96%    MPKI:0.02
PC:19328     Total:95502      MisBP:6792   MisRate:7.11%    MPKI:0.02
PC:3c62a     Total:55733      MisBP:6806   MisRate:12.21%    MPKI:0.02
PC:1c796     Total:67737      MisBP:6811   MisRate:10.06%    MPKI:0.02
PC:1ad02     Total:37564      MisBP:6858   MisRate:18.26%    MPKI:0.02
PC:3c74a     Total:75484      MisBP:6873   MisRate:9.11%    MPKI:0.02
PC:15bc0     Total:35226      MisBP:6881   MisRate:19.53%    MPKI:0.02
PC:28c80     Total:51269      MisBP:6935   MisRate:13.53%    MPKI:0.02
PC:3c660     Total:37037      MisBP:6969   MisRate:18.82%    MPKI:0.02
PC:3cb10     Total:65594      MisBP:7017   MisRate:10.70%    MPKI:0.02
PC:4110c     Total:55658      MisBP:7020   MisRate:12.61%    MPKI:0.02
PC:3e148     Total:42656      MisBP:7021   MisRate:16.46%    MPKI:0.02
PC:3cdfa     Total:57344      MisBP:7030   MisRate:12.26%    MPKI:0.02
PC:47b0c     Total:42669      MisBP:7122   MisRate:16.69%    MPKI:0.02
PC:3c356     Total:23503      MisBP:7127   MisRate:30.32%    MPKI:0.02
PC:1ac4c     Total:136289      MisBP:7157   MisRate:5.25%    MPKI:0.02
PC:15d22     Total:34826      MisBP:7167   MisRate:20.58%    MPKI:0.02
PC:3cdca     Total:36963      MisBP:7185   MisRate:19.44%    MPKI:0.02
PC:190ce     Total:56290      MisBP:7194   MisRate:12.78%    MPKI:0.02
PC:19762     Total:45366      MisBP:7200   MisRate:15.87%    MPKI:0.02
PC:3e158     Total:17189      MisBP:7201   MisRate:41.89%    MPKI:0.02
PC:3ce0a     Total:29310      MisBP:7223   MisRate:24.64%    MPKI:0.02
PC:1978a     Total:34816      MisBP:7284   MisRate:20.92%    MPKI:0.02
PC:18e38     Total:101098      MisBP:7295   MisRate:7.22%    MPKI:0.02
PC:28c78     Total:60115      MisBP:7339   MisRate:12.21%    MPKI:0.02
PC:187b4     Total:354270      MisBP:7342   MisRate:2.07%    MPKI:0.02
PC:3f4d2     Total:29444      MisBP:7392   MisRate:25.11%    MPKI:0.02
PC:3e1aa     Total:24732      MisBP:7398   MisRate:29.91%    MPKI:0.02
PC:19646     Total:58204      MisBP:7415   MisRate:12.74%    MPKI:0.02
PC:3cd7e     Total:40940      MisBP:7470   MisRate:18.25%    MPKI:0.02
PC:1608e     Total:23878      MisBP:7506   MisRate:31.43%    MPKI:0.02
PC:2635e     Total:58232      MisBP:7557   MisRate:12.98%    MPKI:0.02
PC:1614c     Total:28040      MisBP:7602   MisRate:27.11%    MPKI:0.02
PC:192f6     Total:86881      MisBP:7604   MisRate:8.75%    MPKI:0.02
PC:197da     Total:78597      MisBP:7634   MisRate:9.71%    MPKI:0.02
PC:1af18     Total:57491      MisBP:7659   MisRate:13.32%    MPKI:0.02
PC:3e744     Total:28362      MisBP:7702   MisRate:27.16%    MPKI:0.02
PC:1615e     Total:41906      MisBP:7749   MisRate:18.49%    MPKI:0.02
PC:19018     Total:76275      MisBP:7942   MisRate:10.41%    MPKI:0.03
PC:17eae     Total:53235      MisBP:7947   MisRate:14.93%    MPKI:0.03
PC:47b94     Total:47430      MisBP:7986   MisRate:16.84%    MPKI:0.03
PC:196ea     Total:71306      MisBP:8003   MisRate:11.22%    MPKI:0.03
PC:84e7a     Total:61453      MisBP:8025   MisRate:13.06%    MPKI:0.03
PC:3f4cc     Total:38881      MisBP:8066   MisRate:20.75%    MPKI:0.03
PC:16138     Total:43746      MisBP:8077   MisRate:18.46%    MPKI:0.03
PC:15bea     Total:49380      MisBP:8127   MisRate:16.46%    MPKI:0.03
PC:1b862     Total:42064      MisBP:8233   MisRate:19.57%    MPKI:0.03
PC:26024     Total:44429      MisBP:8347   MisRate:18.79%    MPKI:0.03
PC:3c264     Total:92777      MisBP:8581   MisRate:9.25%    MPKI:0.03
PC:3c804     Total:122635      MisBP:8613   MisRate:7.02%    MPKI:0.03
PC:512ba     Total:80722      MisBP:8660   MisRate:10.73%    MPKI:0.03
PC:28c70     Total:67218      MisBP:8723   MisRate:12.98%    MPKI:0.03
PC:3c5cc     Total:55194      MisBP:8747   MisRate:15.85%    MPKI:0.03
PC:158ca     Total:75555      MisBP:8769   MisRate:11.61%    MPKI:0.03
PC:15942     Total:83687      MisBP:8772   MisRate:10.48%    MPKI:0.03
PC:1ae24     Total:65514      MisBP:8865   MisRate:13.53%    MPKI:0.03
PC:1add0     Total:89276      MisBP:8877   MisRate:9.94%    MPKI:0.03
PC:18bec     Total:657784      MisBP:8952   MisRate:1.36%    MPKI:0.03
PC:18a14     Total:56502      MisBP:8960   MisRate:15.86%    MPKI:0.03
PC:156fa     Total:95123      MisBP:8985   MisRate:9.45%    MPKI:0.03
PC:154b2     Total:199972      MisBP:9005   MisRate:4.50%    MPKI:0.03
PC:1931c     Total:94547      MisBP:9145   MisRate:9.67%    MPKI:0.03
PC:1c200     Total:79614      MisBP:9399   MisRate:11.81%    MPKI:0.03
PC:40936     Total:30039      MisBP:9436   MisRate:31.41%    MPKI:0.03
PC:18fce     Total:74352      MisBP:9444   MisRate:12.70%    MPKI:0.03
PC:3cd96     Total:38278      MisBP:9659   MisRate:25.23%    MPKI:0.03
PC:478b8     Total:48870      MisBP:9681   MisRate:19.81%    MPKI:0.03
PC:410ee     Total:34465      MisBP:9711   MisRate:28.18%    MPKI:0.03
PC:15c9c     Total:65905      MisBP:9727   MisRate:14.76%    MPKI:0.03
PC:1c04a     Total:116705      MisBP:9804   MisRate:8.40%    MPKI:0.03
PC:3bfc4     Total:139595      MisBP:9828   MisRate:7.04%    MPKI:0.03
PC:3c634     Total:64219      MisBP:9846   MisRate:15.33%    MPKI:0.03
PC:3e748     Total:42009      MisBP:9884   MisRate:23.53%    MPKI:0.03
PC:3be8a     Total:98694      MisBP:9897   MisRate:10.03%    MPKI:0.03
PC:19748     Total:83572      MisBP:9934   MisRate:11.89%    MPKI:0.03
PC:1c15c     Total:83986      MisBP:9960   MisRate:11.86%    MPKI:0.03
PC:18f84     Total:69068      MisBP:10081   MisRate:14.60%    MPKI:0.03
PC:1596a     Total:150972      MisBP:10103   MisRate:6.69%    MPKI:0.03
PC:19a82     Total:454813      MisBP:10140   MisRate:2.23%    MPKI:0.03
PC:16198     Total:42494      MisBP:10143   MisRate:23.87%    MPKI:0.03
PC:159ce     Total:143459      MisBP:10147   MisRate:7.07%    MPKI:0.03
PC:199e8     Total:147456      MisBP:10260   MisRate:6.96%    MPKI:0.03
PC:3c64a     Total:48338      MisBP:10342   MisRate:21.40%    MPKI:0.03
PC:3ec4e     Total:28235      MisBP:10351   MisRate:36.66%    MPKI:0.03
PC:1c82c     Total:125682      MisBP:10397   MisRate:8.27%    MPKI:0.03
PC:1882e     Total:215254      MisBP:10437   MisRate:4.85%    MPKI:0.03
PC:18f26     Total:83097      MisBP:10469   MisRate:12.60%    MPKI:0.03
PC:17eb8     Total:55907      MisBP:10486   MisRate:18.76%    MPKI:0.03
PC:164b4     Total:41723      MisBP:10538   MisRate:25.26%    MPKI:0.03
PC:3c2d4     Total:104727      MisBP:10609   MisRate:10.13%    MPKI:0.03
PC:15e94     Total:34277      MisBP:10618   MisRate:30.98%    MPKI:0.03
PC:40b32     Total:160991      MisBP:10640   MisRate:6.61%    MPKI:0.03
PC:1973e     Total:82788      MisBP:10646   MisRate:12.86%    MPKI:0.03
PC:199de     Total:129554      MisBP:10721   MisRate:8.28%    MPKI:0.03
PC:1c0b6     Total:68666      MisBP:10741   MisRate:15.64%    MPKI:0.03
PC:1bf82     Total:152466      MisBP:10837   MisRate:7.11%    MPKI:0.03
PC:28cee     Total:79309      MisBP:11035   MisRate:13.91%    MPKI:0.04
PC:47b60     Total:46728      MisBP:11147   MisRate:23.86%    MPKI:0.04
PC:3ec3c     Total:81921      MisBP:11187   MisRate:13.66%    MPKI:0.04
PC:1acb8     Total:68510      MisBP:11585   MisRate:16.91%    MPKI:0.04
PC:2866a     Total:178623      MisBP:11688   MisRate:6.54%    MPKI:0.04
PC:190a6     Total:67030      MisBP:11775   MisRate:17.57%    MPKI:0.04
PC:3c7bc     Total:81136      MisBP:11925   MisRate:14.70%    MPKI:0.04
PC:159e8     Total:119650      MisBP:11938   MisRate:9.98%    MPKI:0.04
PC:1acc2     Total:84289      MisBP:12016   MisRate:14.26%    MPKI:0.04
PC:159d4     Total:117870      MisBP:12041   MisRate:10.22%    MPKI:0.04
PC:3e14e     Total:54413      MisBP:12135   MisRate:22.30%    MPKI:0.04
PC:1ad0c     Total:80163      MisBP:12401   MisRate:15.47%    MPKI:0.04
PC:24eec     Total:120881      MisBP:12463   MisRate:10.31%    MPKI:0.04
PC:18df0     Total:80939      MisBP:12628   MisRate:15.60%    MPKI:0.04
PC:15972     Total:141014      MisBP:12642   MisRate:8.97%    MPKI:0.04
PC:1acf6     Total:65021      MisBP:12868   MisRate:19.79%    MPKI:0.04
PC:1adcc     Total:105660      MisBP:12975   MisRate:12.28%    MPKI:0.04
PC:3c298     Total:69554      MisBP:13011   MisRate:18.71%    MPKI:0.04
PC:3cff0     Total:46245      MisBP:13104   MisRate:28.34%    MPKI:0.04
PC:15b50     Total:60518      MisBP:13163   MisRate:21.75%    MPKI:0.04
PC:3ce00     Total:52022      MisBP:13191   MisRate:25.36%    MPKI:0.04
PC:84e98     Total:56641      MisBP:13494   MisRate:23.82%    MPKI:0.04
PC:24e84     Total:413914      MisBP:13718   MisRate:3.31%    MPKI:0.04
PC:3c7ee     Total:82223      MisBP:13742   MisRate:16.71%    MPKI:0.04
PC:24ccc     Total:153581      MisBP:13782   MisRate:8.97%    MPKI:0.04
PC:18eba     Total:88372      MisBP:13919   MisRate:15.75%    MPKI:0.04
PC:156b6     Total:214605      MisBP:14197   MisRate:6.62%    MPKI:0.05
PC:41130     Total:43605      MisBP:14289   MisRate:32.77%    MPKI:0.05
PC:1ad06     Total:95286      MisBP:14327   MisRate:15.04%    MPKI:0.05
PC:19a52     Total:85123      MisBP:14348   MisRate:16.86%    MPKI:0.05
PC:1acd6     Total:135616      MisBP:15076   MisRate:11.12%    MPKI:0.05
PC:15c92     Total:89033      MisBP:15156   MisRate:17.02%    MPKI:0.05
PC:3ce46     Total:69782      MisBP:15382   MisRate:22.04%    MPKI:0.05
PC:1accc     Total:93578      MisBP:15384   MisRate:16.44%    MPKI:0.05
PC:24edc     Total:147076      MisBP:15576   MisRate:10.59%    MPKI:0.05
PC:51360     Total:303304      MisBP:15646   MisRate:5.16%    MPKI:0.05
PC:24f48     Total:355207      MisBP:15839   MisRate:4.46%    MPKI:0.05
PC:17de6     Total:83672      MisBP:16178   MisRate:19.34%    MPKI:0.05
PC:1b830     Total:50796      MisBP:16250   MisRate:31.99%    MPKI:0.05
PC:1acbc     Total:108658      MisBP:16320   MisRate:15.02%    MPKI:0.05
PC:9e50c     Total:435045      MisBP:16381   MisRate:3.77%    MPKI:0.05
PC:3c7b2     Total:117532      MisBP:16388   MisRate:13.94%    MPKI:0.05
PC:197f4     Total:77505      MisBP:16454   MisRate:21.23%    MPKI:0.05
PC:17e74     Total:71330      MisBP:16512   MisRate:23.15%    MPKI:0.05
PC:1acaa     Total:85419      MisBP:16556   MisRate:19.38%    MPKI:0.05
PC:159f8     Total:101663      MisBP:16934   MisRate:16.66%    MPKI:0.05
PC:3be8e     Total:95731      MisBP:16989   MisRate:17.75%    MPKI:0.05
PC:3cb1a     Total:76011      MisBP:17191   MisRate:22.62%    MPKI:0.06
PC:25008     Total:104881      MisBP:17213   MisRate:16.41%    MPKI:0.06
PC:512b6     Total:162913      MisBP:17248   MisRate:10.59%    MPKI:0.06
PC:159fe     Total:105371      MisBP:17280   MisRate:16.40%    MPKI:0.06
PC:14e64     Total:125220      MisBP:17440   MisRate:13.93%    MPKI:0.06
PC:1c77e     Total:102287      MisBP:17686   MisRate:17.29%    MPKI:0.06
PC:3c692     Total:86465      MisBP:17804   MisRate:20.59%    MPKI:0.06
PC:19a6c     Total:87894      MisBP:17938   MisRate:20.41%    MPKI:0.06
PC:14e10     Total:70545      MisBP:18040   MisRate:25.57%    MPKI:0.06
PC:15950     Total:95361      MisBP:18108   MisRate:18.99%    MPKI:0.06
PC:159ee     Total:110757      MisBP:18214   MisRate:16.45%    MPKI:0.06
PC:1aca4     Total:103976      MisBP:18451   MisRate:17.75%    MPKI:0.06
PC:3c7e0     Total:111256      MisBP:18684   MisRate:16.79%    MPKI:0.06
PC:18dfa     Total:121288      MisBP:18896   MisRate:15.58%    MPKI:0.06
PC:1576e     Total:94767      MisBP:19005   MisRate:20.05%    MPKI:0.06
PC:19614     Total:365629      MisBP:19090   MisRate:5.22%    MPKI:0.06
PC:15a0e     Total:129899      MisBP:19097   MisRate:14.70%    MPKI:0.06
PC:3cfa6     Total:220773      MisBP:19303   MisRate:8.74%    MPKI:0.06
PC:17fcc     Total:173052      MisBP:19317   MisRate:11.16%    MPKI:0.06
PC:176c2     Total:131134      MisBP:19805   MisRate:15.10%    MPKI:0.06
PC:154ac     Total:191942      MisBP:20332   MisRate:10.59%    MPKI:0.07
PC:15a08     Total:120950      MisBP:20602   MisRate:17.03%    MPKI:0.07
PC:18e00     Total:283684      MisBP:21007   MisRate:7.41%    MPKI:0.07
PC:1973c     Total:156720      MisBP:21889   MisRate:13.97%    MPKI:0.07
PC:19754     Total:163323      MisBP:22322   MisRate:13.67%    MPKI:0.07
PC:18d76     Total:127478      MisBP:22690   MisRate:17.80%    MPKI:0.07
PC:199dc     Total:189883      MisBP:23048   MisRate:12.14%    MPKI:0.07
PC:1aca0     Total:123719      MisBP:23114   MisRate:18.68%    MPKI:0.07
PC:18d72     Total:114160      MisBP:23591   MisRate:20.66%    MPKI:0.08
PC:1ace0     Total:137690      MisBP:23914   MisRate:17.37%    MPKI:0.08
PC:14ea4     Total:135724      MisBP:23999   MisRate:17.68%    MPKI:0.08
PC:1bfa2     Total:251091      MisBP:24330   MisRate:9.69%    MPKI:0.08
PC:18d56     Total:137528      MisBP:24501   MisRate:17.82%    MPKI:0.08
PC:1bfc4     Total:309165      MisBP:24595   MisRate:7.96%    MPKI:0.08
PC:24f4e     Total:337730      MisBP:24777   MisRate:7.34%    MPKI:0.08
PC:14ee6     Total:142401      MisBP:24932   MisRate:17.51%    MPKI:0.08
PC:3bfda     Total:169603      MisBP:24982   MisRate:14.73%    MPKI:0.08
PC:1b7f4     Total:84476      MisBP:25534   MisRate:30.23%    MPKI:0.08
PC:192ac     Total:194297      MisBP:25918   MisRate:13.34%    MPKI:0.08
PC:15964     Total:139564      MisBP:26009   MisRate:18.64%    MPKI:0.08
PC:24e8c     Total:409401      MisBP:26165   MisRate:6.39%    MPKI:0.08
PC:18d6a     Total:99657      MisBP:26196   MisRate:26.29%    MPKI:0.08
PC:1c7d4     Total:87878      MisBP:26481   MisRate:30.13%    MPKI:0.09
PC:18f6a     Total:244502      MisBP:26565   MisRate:10.86%    MPKI:0.09
PC:512ac     Total:296896      MisBP:26693   MisRate:8.99%    MPKI:0.09
PC:18dde     Total:100615      MisBP:27018   MisRate:26.85%    MPKI:0.09
PC:1595a     Total:115192      MisBP:27110   MisRate:23.53%    MPKI:0.09
PC:192e0     Total:192274      MisBP:27302   MisRate:14.20%    MPKI:0.09
PC:14f26     Total:148596      MisBP:28146   MisRate:18.94%    MPKI:0.09
PC:1c01e     Total:179943      MisBP:28329   MisRate:15.74%    MPKI:0.09
PC:1c1d2     Total:133171      MisBP:28510   MisRate:21.41%    MPKI:0.09
PC:1c088     Total:94746      MisBP:28637   MisRate:30.23%    MPKI:0.09
PC:1925a     Total:174270      MisBP:29075   MisRate:16.68%    MPKI:0.09
PC:1bfe2     Total:305901      MisBP:29326   MisRate:9.59%    MPKI:0.09
PC:14fb8     Total:629096      MisBP:29694   MisRate:4.72%    MPKI:0.10
PC:1c12c     Total:192942      MisBP:29755   MisRate:15.42%    MPKI:0.10
PC:17dac     Total:115767      MisBP:29855   MisRate:25.79%    MPKI:0.10
PC:154a2     Total:161709      MisBP:30208   MisRate:18.68%    MPKI:0.10
PC:155e6     Total:146765      MisBP:30409   MisRate:20.72%    MPKI:0.10
PC:15b40     Total:127492      MisBP:30702   MisRate:24.08%    MPKI:0.10
PC:3c220     Total:458277      MisBP:30712   MisRate:6.70%    MPKI:0.10
PC:3bfc6     Total:143049      MisBP:32303   MisRate:22.58%    MPKI:0.10
PC:157ba     Total:98544      MisBP:32583   MisRate:33.06%    MPKI:0.11
PC:3ca14     Total:272705      MisBP:32670   MisRate:11.98%    MPKI:0.11
PC:3cfac     Total:203946      MisBP:32685   MisRate:16.03%    MPKI:0.11
PC:15a1e     Total:99459      MisBP:32935   MisRate:33.11%    MPKI:0.11
PC:14fa8     Total:129939      MisBP:33985   MisRate:26.15%    MPKI:0.11
PC:14f62     Total:156442      MisBP:36434   MisRate:23.29%    MPKI:0.12
PC:19314     Total:203584      MisBP:37676   MisRate:18.51%    MPKI:0.12
PC:199f6     Total:241442      MisBP:38012   MisRate:15.74%    MPKI:0.12
PC:18d4c     Total:166579      MisBP:38166   MisRate:22.91%    MPKI:0.12
PC:18cde     Total:271012      MisBP:39391   MisRate:14.53%    MPKI:0.13
PC:24f74     Total:315108      MisBP:39593   MisRate:12.56%    MPKI:0.13
PC:3ca34     Total:268746      MisBP:40107   MisRate:14.92%    MPKI:0.13
PC:15a16     Total:120712      MisBP:40714   MisRate:33.73%    MPKI:0.13
PC:3ca0a     Total:323880      MisBP:41920   MisRate:12.94%    MPKI:0.14
PC:24f80     Total:367522      MisBP:42377   MisRate:11.53%    MPKI:0.14
PC:3c224     Total:476497      MisBP:44802   MisRate:9.40%    MPKI:0.14
PC:3bf76     Total:901728      MisBP:44944   MisRate:4.98%    MPKI:0.14
PC:28bd0     Total:260083      MisBP:45447   MisRate:17.47%    MPKI:0.15
PC:3c6e4     Total:201726      MisBP:46122   MisRate:22.86%    MPKI:0.15
PC:14fb2     Total:582691      MisBP:46337   MisRate:7.95%    MPKI:0.15
PC:156e4     Total:303989      MisBP:46965   MisRate:15.45%    MPKI:0.15
PC:18d3e     Total:198573      MisBP:47537   MisRate:23.94%    MPKI:0.15
PC:3bf88     Total:138727      MisBP:48093   MisRate:34.67%    MPKI:0.16
PC:18bb2     Total:363311      MisBP:49597   MisRate:13.65%    MPKI:0.16
PC:1bfe8     Total:263923      MisBP:50157   MisRate:19.00%    MPKI:0.16
PC:3c73a     Total:314235      MisBP:52075   MisRate:16.57%    MPKI:0.17
PC:28c14     Total:999484      MisBP:52460   MisRate:5.25%    MPKI:0.17
PC:24ea4     Total:394983      MisBP:53384   MisRate:13.52%    MPKI:0.17
PC:156a4     Total:273785      MisBP:53518   MisRate:19.55%    MPKI:0.17
PC:24f18     Total:436910      MisBP:53611   MisRate:12.27%    MPKI:0.17
PC:18d34     Total:249229      MisBP:54520   MisRate:21.88%    MPKI:0.18
PC:1bf88     Total:144997      MisBP:55111   MisRate:38.01%    MPKI:0.18
PC:24cc8     Total:176148      MisBP:56123   MisRate:31.86%    MPKI:0.18
PC:84c10     Total:149514      MisBP:62352   MisRate:41.70%    MPKI:0.20
PC:1bfca     Total:298880      MisBP:62844   MisRate:21.03%    MPKI:0.20
PC:1bfa8     Total:225431      MisBP:66575   MisRate:29.53%    MPKI:0.21
PC:3ca32     Total:455760      MisBP:67768   MisRate:14.87%    MPKI:0.22
PC:18bda     Total:590035      MisBP:69462   MisRate:11.77%    MPKI:0.22
PC:28c04     Total:923611      MisBP:82876   MisRate:8.97%    MPKI:0.27
PC:17694     Total:2085426      MisBP:89230   MisRate:4.28%    MPKI:0.29
PC:188ca     Total:411608      MisBP:92247   MisRate:22.41%    MPKI:0.30
PC:18bde     Total:659979      MisBP:102374   MisRate:15.51%    MPKI:0.33
PC:3bf7c     Total:869374      MisBP:119516   MisRate:13.75%    MPKI:0.39
PC:1a934     Total:807035      MisBP:213109   MisRate:26.41%    MPKI:0.69
Totfetch:665143645  TotInsts:310000007  TotMis : inf%   MPKI : 23.69
=============finish sim!!!!!!=============
Done running SimPoint!
