Global frequency set at 1000000000000 ticks per second
 Register [printBranch()] ExitCallback !!!!!!! 
gem5 Simulator System.  https://www.gem5.org
gem5 is copyrighted software; use the --copyright option for details.

gem5 version 22.0.0.2
gem5 compiled Sep  7 2022 00:42:18
gem5 started Sep  7 2022 05:15:16
gem5 executing on a100, pid 2801385
command line: /data/zxf/gem5/gem5-prof/build/ARM/gem5.fast --outdir=/data/zxf/checkpoint/spec2006/473.astar/prof/astar_ckp_9 /data/zxf/gem5/gem5-prof/configs/example/se.py --cpu-type O3CPU --cpu-clock 1GHz --num-cpu 1 --l1d-hwp-type=BOPPrefetcher --caches --l2cache --l1i_size 32kB --l1d_size 32kB --l2_size 1MB --l1i_assoc 8 --l1d_assoc 8 --l2_assoc 16 --cacheline_size 64 --mem-type DDR3_2133_8x8 --mem-size 16GB --restore-simpoint-checkpoint -r 9 --checkpoint-dir /data/zxf/checkpoint/spec2006/473.astar/ckpt -c astar_base.gcc41-64bit -o rivers.cfg

info: Standard input is not a terminal, disabling listeners.
Resuming from /data/zxf/checkpoint/spec2006/473.astar/ckpt/cpt.simpoint_08_inst_390590000000_weight_0.024125_interval_300000000_warmup_10000000
Resuming from SimPoint #8, start_inst:390590000000, weight:0.024125, interval:300000000, warmup:10000000
Switch at curTick count:10000
Switched CPUS @ tick 269154070017500
[(<m5.objects.ArmCPU.ArmAtomicSimpleCPU object at 0x7f1f0b1d3bb0>, <m5.objects.ArmCPU.ArmO3CPU object at 0x7f1f0b1ebe20>)]
switching cpus



+++++++++++++++++++++++++zxf print simpoint+++++++++++++++++++++++++++
Warmed up! Dumping and resetting stats!


=============start sim!!!!!!=============
PC:13880     Total:352      MisBP:0   MisRate:0.00%    MPKI:0.00
PC:2c884     Total:23      MisBP:0   MisRate:0.00%    MPKI:0.00
PC:2d9d8     Total:11      MisBP:0   MisRate:0.00%    MPKI:0.00
PC:32380     Total:3      MisBP:0   MisRate:0.00%    MPKI:0.00
PC:139f8     Total:40      MisBP:0   MisRate:0.00%    MPKI:0.00
PC:2d3f2     Total:2      MisBP:0   MisRate:0.00%    MPKI:0.00
PC:13c74     Total:2      MisBP:0   MisRate:0.00%    MPKI:0.00
PC:13c6e     Total:2      MisBP:0   MisRate:0.00%    MPKI:0.00
PC:13c5c     Total:41      MisBP:0   MisRate:0.00%    MPKI:0.00
PC:13c54     Total:2      MisBP:0   MisRate:0.00%    MPKI:0.00
PC:13c50     Total:2      MisBP:0   MisRate:0.00%    MPKI:0.00
PC:13816     Total:5094331      MisBP:0   MisRate:0.00%    MPKI:0.00
PC:2cd32     Total:36      MisBP:0   MisRate:0.00%    MPKI:0.00
PC:13886     Total:1      MisBP:0   MisRate:0.00%    MPKI:0.00
PC:13884     Total:1      MisBP:0   MisRate:0.00%    MPKI:0.00
PC:13882     Total:1      MisBP:0   MisRate:0.00%    MPKI:0.00
PC:2d3fc     Total:1      MisBP:0   MisRate:0.00%    MPKI:0.00
PC:1387c     Total:476      MisBP:0   MisRate:0.00%    MPKI:0.00
PC:1387a     Total:476      MisBP:0   MisRate:0.00%    MPKI:0.00
PC:13878     Total:477      MisBP:0   MisRate:0.00%    MPKI:0.00
PC:13c7a     Total:2      MisBP:0   MisRate:0.00%    MPKI:0.00
PC:13876     Total:477      MisBP:0   MisRate:0.00%    MPKI:0.00
PC:13872     Total:477      MisBP:0   MisRate:0.00%    MPKI:0.00
PC:1386e     Total:477      MisBP:0   MisRate:0.00%    MPKI:0.00
PC:1386c     Total:477      MisBP:0   MisRate:0.00%    MPKI:0.00
PC:2d79a     Total:1      MisBP:0   MisRate:0.00%    MPKI:0.00
PC:10b40     Total:5      MisBP:0   MisRate:0.00%    MPKI:0.00
PC:137ba     Total:820936      MisBP:0   MisRate:0.00%    MPKI:0.00
PC:2d798     Total:1      MisBP:0   MisRate:0.00%    MPKI:0.00
PC:137b8     Total:822429      MisBP:0   MisRate:0.00%    MPKI:0.00
PC:2d794     Total:1      MisBP:0   MisRate:0.00%    MPKI:0.00
PC:137b4     Total:822619      MisBP:0   MisRate:0.00%    MPKI:0.00
PC:2f45a     Total:5      MisBP:0   MisRate:0.00%    MPKI:0.00
PC:2f46e     Total:4      MisBP:0   MisRate:0.00%    MPKI:0.00
PC:13a90     Total:4709      MisBP:0   MisRate:0.00%    MPKI:0.00
PC:2f480     Total:6      MisBP:0   MisRate:0.00%    MPKI:0.00
PC:2f46c     Total:5      MisBP:0   MisRate:0.00%    MPKI:0.00
PC:13a7c     Total:4957      MisBP:0   MisRate:0.00%    MPKI:0.00
PC:2f46a     Total:5      MisBP:0   MisRate:0.00%    MPKI:0.00
PC:13a8c     Total:4710      MisBP:0   MisRate:0.00%    MPKI:0.00
PC:2f466     Total:5      MisBP:0   MisRate:0.00%    MPKI:0.00
PC:13a76     Total:4960      MisBP:0   MisRate:0.00%    MPKI:0.00
PC:13a88     Total:4710      MisBP:0   MisRate:0.00%    MPKI:0.00
PC:2f464     Total:5      MisBP:0   MisRate:0.00%    MPKI:0.00
PC:13a74     Total:4963      MisBP:0   MisRate:0.00%    MPKI:0.00
PC:2f462     Total:5      MisBP:0   MisRate:0.00%    MPKI:0.00
PC:13a72     Total:4963      MisBP:0   MisRate:0.00%    MPKI:0.00
PC:2f45e     Total:5      MisBP:0   MisRate:0.00%    MPKI:0.00
PC:2cd3e     Total:43      MisBP:0   MisRate:0.00%    MPKI:0.00
PC:13a78     Total:4958      MisBP:0   MisRate:0.00%    MPKI:0.00
PC:2f454     Total:5      MisBP:0   MisRate:0.00%    MPKI:0.00
PC:13a64     Total:5139      MisBP:0   MisRate:0.00%    MPKI:0.00
PC:2c8b0     Total:21      MisBP:0   MisRate:0.00%    MPKI:0.00
PC:10ec0     Total:8      MisBP:0   MisRate:0.00%    MPKI:0.00
PC:13a24     Total:21      MisBP:0   MisRate:0.00%    MPKI:0.00
PC:2cf40     Total:19      MisBP:0   MisRate:0.00%    MPKI:0.00
PC:2c89a     Total:21      MisBP:0   MisRate:0.00%    MPKI:0.00
PC:324ac     Total:2      MisBP:0   MisRate:0.00%    MPKI:0.00
PC:13a0e     Total:40      MisBP:0   MisRate:0.00%    MPKI:0.00
PC:13a06     Total:40      MisBP:0   MisRate:0.00%    MPKI:0.00
PC:2c88e     Total:23      MisBP:0   MisRate:0.00%    MPKI:0.00
PC:324a0     Total:2      MisBP:0   MisRate:0.00%    MPKI:0.00
PC:13a02     Total:40      MisBP:0   MisRate:0.00%    MPKI:0.00
PC:1375c     Total:2813811      MisBP:0   MisRate:0.00%    MPKI:0.00
PC:2d750     Total:37      MisBP:0   MisRate:0.00%    MPKI:0.00
PC:10af6     Total:13      MisBP:0   MisRate:0.00%    MPKI:0.00
PC:13770     Total:840366      MisBP:0   MisRate:0.00%    MPKI:0.00
PC:2d74c     Total:37      MisBP:0   MisRate:0.00%    MPKI:0.00
PC:10af2     Total:13      MisBP:0   MisRate:0.00%    MPKI:0.00
PC:2d74a     Total:37      MisBP:0   MisRate:0.00%    MPKI:0.00
PC:1376a     Total:2761621      MisBP:0   MisRate:0.00%    MPKI:0.00
PC:2d59e     Total:16      MisBP:0   MisRate:0.00%    MPKI:0.00
PC:2d746     Total:37      MisBP:0   MisRate:0.00%    MPKI:0.00
PC:10aec     Total:13      MisBP:0   MisRate:0.00%    MPKI:0.00
PC:13766     Total:2781004      MisBP:0   MisRate:0.00%    MPKI:0.00
PC:13762     Total:2799096      MisBP:0   MisRate:0.00%    MPKI:0.00
PC:2d73e     Total:29      MisBP:0   MisRate:0.00%    MPKI:0.00
PC:1375e     Total:2806536      MisBP:0   MisRate:0.00%    MPKI:0.00
PC:2cc7a     Total:1      MisBP:0   MisRate:0.00%    MPKI:0.00
PC:2d5a8     Total:16      MisBP:0   MisRate:0.00%    MPKI:0.00
PC:2d73a     Total:29      MisBP:0   MisRate:0.00%    MPKI:0.00
PC:1375a     Total:2823447      MisBP:0   MisRate:0.00%    MPKI:0.00
PC:2cc76     Total:1      MisBP:0   MisRate:0.00%    MPKI:0.00
PC:13756     Total:2838689      MisBP:0   MisRate:0.00%    MPKI:0.00
PC:2cc72     Total:19      MisBP:0   MisRate:0.00%    MPKI:0.00
PC:2d734     Total:29      MisBP:0   MisRate:0.00%    MPKI:0.00
PC:10ada     Total:4405      MisBP:0   MisRate:0.00%    MPKI:0.00
PC:13754     Total:2838867      MisBP:0   MisRate:0.00%    MPKI:0.00
PC:2cc70     Total:19      MisBP:0   MisRate:0.00%    MPKI:0.00
PC:13750     Total:28733011      MisBP:0   MisRate:0.00%    MPKI:0.00
PC:2cc6c     Total:19      MisBP:0   MisRate:0.00%    MPKI:0.00
PC:138b8     Total:2993458      MisBP:0   MisRate:0.00%    MPKI:0.00
PC:138b0     Total:2994256      MisBP:0   MisRate:0.00%    MPKI:0.00
PC:138ac     Total:2995928      MisBP:0   MisRate:0.00%    MPKI:0.00
PC:2d5d8     Total:1      MisBP:0   MisRate:0.00%    MPKI:0.00
PC:2d5e8     Total:3      MisBP:0   MisRate:0.00%    MPKI:0.00
PC:137b0     Total:822741      MisBP:0   MisRate:0.00%    MPKI:0.00
PC:2cd3a     Total:44      MisBP:0   MisRate:0.00%    MPKI:0.00
PC:1381e     Total:2388348      MisBP:0   MisRate:0.00%    MPKI:0.00
PC:2d5e4     Total:1      MisBP:0   MisRate:0.00%    MPKI:0.00
PC:137ac     Total:823304      MisBP:0   MisRate:0.00%    MPKI:0.00
PC:2d78a     Total:7      MisBP:0   MisRate:0.00%    MPKI:0.00
PC:137aa     Total:823313      MisBP:0   MisRate:0.00%    MPKI:0.00
PC:2d5de     Total:1      MisBP:0   MisRate:0.00%    MPKI:0.00
PC:2d788     Total:7      MisBP:0   MisRate:0.00%    MPKI:0.00
PC:10b2e     Total:15      MisBP:0   MisRate:0.00%    MPKI:0.00
PC:137a8     Total:824130      MisBP:0   MisRate:0.00%    MPKI:0.00
PC:2d5dc     Total:1      MisBP:0   MisRate:0.00%    MPKI:0.00
PC:137a6     Total:825080      MisBP:0   MisRate:0.00%    MPKI:0.00
PC:137a4     Total:825220      MisBP:0   MisRate:0.00%    MPKI:0.00
PC:13a92     Total:4696      MisBP:0   MisRate:0.00%    MPKI:0.00
PC:13798     Total:826368      MisBP:0   MisRate:0.00%    MPKI:0.00
PC:13792     Total:827272      MisBP:0   MisRate:0.00%    MPKI:0.00
PC:2d5c6     Total:38      MisBP:0   MisRate:0.00%    MPKI:0.00
PC:2d76e     Total:13      MisBP:0   MisRate:0.00%    MPKI:0.00
PC:10b14     Total:11      MisBP:0   MisRate:0.00%    MPKI:0.00
PC:1378e     Total:827312      MisBP:0   MisRate:0.00%    MPKI:0.00
PC:2d76a     Total:26      MisBP:0   MisRate:0.00%    MPKI:0.00
PC:10b10     Total:11      MisBP:0   MisRate:0.00%    MPKI:0.00
PC:1378a     Total:827343      MisBP:0   MisRate:0.00%    MPKI:0.00
PC:13774     Total:839955      MisBP:0   MisRate:0.00%    MPKI:0.00
PC:2efa6     Total:35      MisBP:0   MisRate:0.00%    MPKI:0.00
PC:2cad2     Total:1      MisBP:0   MisRate:0.00%    MPKI:0.00
PC:14820     Total:40      MisBP:0   MisRate:0.00%    MPKI:0.00
PC:326e4     Total:3      MisBP:0   MisRate:0.00%    MPKI:0.00
PC:2c9fc     Total:2      MisBP:0   MisRate:0.00%    MPKI:0.00
PC:3261c     Total:36      MisBP:0   MisRate:0.00%    MPKI:0.00
PC:2dc74     Total:2      MisBP:0   MisRate:0.00%    MPKI:0.00
PC:13b7e     Total:18      MisBP:0   MisRate:0.00%    MPKI:0.00
PC:13b7c     Total:18      MisBP:0   MisRate:0.00%    MPKI:0.00
PC:2ca06     Total:1      MisBP:0   MisRate:0.00%    MPKI:0.00
PC:11016     Total:17      MisBP:0   MisRate:0.00%    MPKI:0.00
PC:32618     Total:36      MisBP:0   MisRate:0.00%    MPKI:0.00
PC:2dc70     Total:2      MisBP:0   MisRate:0.00%    MPKI:0.00
PC:13b7a     Total:18      MisBP:0   MisRate:0.00%    MPKI:0.00
PC:13b76     Total:18      MisBP:0   MisRate:0.00%    MPKI:0.00
PC:2c9fe     Total:2      MisBP:0   MisRate:0.00%    MPKI:0.00
PC:1100e     Total:17      MisBP:0   MisRate:0.00%    MPKI:0.00
PC:32610     Total:36      MisBP:0   MisRate:0.00%    MPKI:0.00
PC:2dc68     Total:2      MisBP:0   MisRate:0.00%    MPKI:0.00
PC:13b72     Total:23      MisBP:0   MisRate:0.00%    MPKI:0.00
PC:2ca0a     Total:1      MisBP:0   MisRate:0.00%    MPKI:0.00
PC:13b70     Total:23      MisBP:0   MisRate:0.00%    MPKI:0.00
PC:1101c     Total:17      MisBP:0   MisRate:0.00%    MPKI:0.00
PC:2c9f8     Total:2      MisBP:0   MisRate:0.00%    MPKI:0.00
PC:13b6c     Total:72      MisBP:0   MisRate:0.00%    MPKI:0.00
PC:2c9f4     Total:2      MisBP:0   MisRate:0.00%    MPKI:0.00
PC:13b68     Total:72      MisBP:0   MisRate:0.00%    MPKI:0.00
PC:13b66     Total:17775      MisBP:0   MisRate:0.00%    MPKI:0.00
PC:11012     Total:17      MisBP:0   MisRate:0.00%    MPKI:0.00
PC:32614     Total:36      MisBP:0   MisRate:0.00%    MPKI:0.00
PC:2dc6c     Total:2      MisBP:0   MisRate:0.00%    MPKI:0.00
PC:2c9f0     Total:2      MisBP:0   MisRate:0.00%    MPKI:0.00
PC:13b64     Total:17775      MisBP:0   MisRate:0.00%    MPKI:0.00
PC:13b62     Total:17782      MisBP:0   MisRate:0.00%    MPKI:0.00
PC:13b60     Total:17784      MisBP:0   MisRate:0.00%    MPKI:0.00
PC:13afe     Total:15367      MisBP:0   MisRate:0.00%    MPKI:0.00
PC:2c9a2     Total:1      MisBP:0   MisRate:0.00%    MPKI:0.00
PC:325c8     Total:36      MisBP:0   MisRate:0.00%    MPKI:0.00
PC:13b2a     Total:20157      MisBP:0   MisRate:0.00%    MPKI:0.00
PC:2c9b2     Total:1      MisBP:0   MisRate:0.00%    MPKI:0.00
PC:325c4     Total:36      MisBP:0   MisRate:0.00%    MPKI:0.00
PC:13b26     Total:20306      MisBP:0   MisRate:0.00%    MPKI:0.00
PC:13b24     Total:20307      MisBP:0   MisRate:0.00%    MPKI:0.00
PC:2c9ae     Total:1      MisBP:0   MisRate:0.00%    MPKI:0.00
PC:325c0     Total:36      MisBP:0   MisRate:0.00%    MPKI:0.00
PC:13b20     Total:13501      MisBP:0   MisRate:0.00%    MPKI:0.00
PC:2c9aa     Total:1      MisBP:0   MisRate:0.00%    MPKI:0.00
PC:325bc     Total:36      MisBP:0   MisRate:0.00%    MPKI:0.00
PC:13b1e     Total:13513      MisBP:0   MisRate:0.00%    MPKI:0.00
PC:13b1c     Total:13513      MisBP:0   MisRate:0.00%    MPKI:0.00
PC:2c9a4     Total:1      MisBP:0   MisRate:0.00%    MPKI:0.00
PC:13b18     Total:13520      MisBP:0   MisRate:0.00%    MPKI:0.00
PC:2c986     Total:37      MisBP:0   MisRate:0.00%    MPKI:0.00
PC:325b4     Total:36      MisBP:0   MisRate:0.00%    MPKI:0.00
PC:13b16     Total:13524      MisBP:0   MisRate:0.00%    MPKI:0.00
PC:13b14     Total:14238      MisBP:0   MisRate:0.00%    MPKI:0.00
PC:2c99e     Total:1      MisBP:0   MisRate:0.00%    MPKI:0.00
PC:325b0     Total:36      MisBP:0   MisRate:0.00%    MPKI:0.00
PC:13b12     Total:14238      MisBP:0   MisRate:0.00%    MPKI:0.00
PC:13b0e     Total:14268      MisBP:0   MisRate:0.00%    MPKI:0.00
PC:13b0c     Total:14268      MisBP:0   MisRate:0.00%    MPKI:0.00
PC:2c994     Total:19      MisBP:0   MisRate:0.00%    MPKI:0.00
PC:13b08     Total:14265      MisBP:0   MisRate:0.00%    MPKI:0.00
PC:13b06     Total:14266      MisBP:0   MisRate:0.00%    MPKI:0.00
PC:13b02     Total:14265      MisBP:0   MisRate:0.00%    MPKI:0.00
PC:2c98c     Total:19      MisBP:0   MisRate:0.00%    MPKI:0.00
PC:13b00     Total:14271      MisBP:0   MisRate:0.00%    MPKI:0.00
PC:2f488     Total:27      MisBP:0   MisRate:0.00%    MPKI:0.00
PC:2f4a0     Total:26      MisBP:0   MisRate:0.00%    MPKI:0.00
PC:13ab0     Total:4385      MisBP:0   MisRate:0.00%    MPKI:0.00
PC:13ac2     Total:16476      MisBP:0   MisRate:0.00%    MPKI:0.00
PC:2f49a     Total:54      MisBP:0   MisRate:0.00%    MPKI:0.00
PC:13aaa     Total:4502      MisBP:0   MisRate:0.00%    MPKI:0.00
PC:13abc     Total:17532      MisBP:0   MisRate:0.00%    MPKI:0.00
PC:2f496     Total:27      MisBP:0   MisRate:0.00%    MPKI:0.00
PC:13aa6     Total:4543      MisBP:0   MisRate:0.00%    MPKI:0.00
PC:2f492     Total:27      MisBP:0   MisRate:0.00%    MPKI:0.00
PC:13aa2     Total:4543      MisBP:0   MisRate:0.00%    MPKI:0.00
PC:2f490     Total:27      MisBP:0   MisRate:0.00%    MPKI:0.00
PC:13aa0     Total:4543      MisBP:0   MisRate:0.00%    MPKI:0.00
PC:2f48e     Total:27      MisBP:0   MisRate:0.00%    MPKI:0.00
PC:2f48a     Total:27      MisBP:0   MisRate:0.00%    MPKI:0.00
PC:13aac     Total:4385      MisBP:0   MisRate:0.00%    MPKI:0.00
PC:13ac4     Total:16475      MisBP:0   MisRate:0.00%    MPKI:0.00
PC:13a98     Total:4543      MisBP:0   MisRate:0.00%    MPKI:0.00
PC:2f47e     Total:4      MisBP:0   MisRate:0.00%    MPKI:0.00
PC:13a8e     Total:4710      MisBP:0   MisRate:0.00%    MPKI:0.00
PC:2f47a     Total:4      MisBP:0   MisRate:0.00%    MPKI:0.00
PC:13a9c     Total:4543      MisBP:0   MisRate:0.00%    MPKI:0.00
PC:2f476     Total:4      MisBP:0   MisRate:0.00%    MPKI:0.00
PC:13a86     Total:4710      MisBP:0   MisRate:0.00%    MPKI:0.00
PC:2f474     Total:4      MisBP:0   MisRate:0.00%    MPKI:0.00
PC:13a84     Total:4724      MisBP:0   MisRate:0.00%    MPKI:0.00
PC:13a96     Total:4543      MisBP:0   MisRate:0.00%    MPKI:0.00
PC:13a94     Total:4554      MisBP:0   MisRate:0.00%    MPKI:0.00
PC:2f484     Total:3      MisBP:0   MisRate:0.00%    MPKI:0.00
PC:2f470     Total:4      MisBP:0   MisRate:0.00%    MPKI:0.00
PC:13a80     Total:4725      MisBP:0   MisRate:0.00%    MPKI:0.00
PC:2f4b0     Total:6      MisBP:0   MisRate:0.00%    MPKI:0.00
PC:32598     Total:36      MisBP:0   MisRate:0.00%    MPKI:0.00
PC:13afa     Total:15366      MisBP:0   MisRate:0.00%    MPKI:0.00
PC:13af8     Total:15378      MisBP:0   MisRate:0.00%    MPKI:0.00
PC:13af6     Total:15378      MisBP:0   MisRate:0.00%    MPKI:0.00
PC:13af4     Total:15754      MisBP:0   MisRate:0.00%    MPKI:0.00
PC:13af0     Total:15755      MisBP:0   MisRate:0.00%    MPKI:0.00
PC:13aee     Total:15765      MisBP:0   MisRate:0.00%    MPKI:0.00
PC:13aea     Total:15784      MisBP:0   MisRate:0.00%    MPKI:0.00
PC:13ae6     Total:15995      MisBP:0   MisRate:0.00%    MPKI:0.00
PC:13ae4     Total:15999      MisBP:0   MisRate:0.00%    MPKI:0.00
PC:13ae2     Total:16000      MisBP:0   MisRate:0.00%    MPKI:0.00
PC:13ade     Total:16001      MisBP:0   MisRate:0.00%    MPKI:0.00
PC:13ada     Total:69530      MisBP:0   MisRate:0.00%    MPKI:0.00
PC:13ad6     Total:83599      MisBP:0   MisRate:0.00%    MPKI:0.00
PC:13ad4     Total:86746      MisBP:0   MisRate:0.00%    MPKI:0.00
PC:138aa     Total:21434      MisBP:0   MisRate:0.00%    MPKI:0.00
PC:2f4ae     Total:1      MisBP:0   MisRate:0.00%    MPKI:0.00
PC:13abe     Total:16480      MisBP:0   MisRate:0.00%    MPKI:0.00
PC:13ad0     Total:90030      MisBP:0   MisRate:0.00%    MPKI:0.00
PC:13ace     Total:90074      MisBP:0   MisRate:0.00%    MPKI:0.00
PC:2f4aa     Total:2      MisBP:0   MisRate:0.00%    MPKI:0.00
PC:2f4a8     Total:1      MisBP:0   MisRate:0.00%    MPKI:0.00
PC:13ab8     Total:17541      MisBP:0   MisRate:0.00%    MPKI:0.00
PC:13aca     Total:74144      MisBP:0   MisRate:0.00%    MPKI:0.00
PC:13ac8     Total:74153      MisBP:0   MisRate:0.00%    MPKI:0.00
PC:2f4a4     Total:26      MisBP:0   MisRate:0.00%    MPKI:0.00
PC:13ab4     Total:17541      MisBP:0   MisRate:0.00%    MPKI:0.00
PC:13ac6     Total:74163      MisBP:0   MisRate:0.00%    MPKI:0.00
PC:2f4a2     Total:26      MisBP:0   MisRate:0.00%    MPKI:0.00
PC:13ab2     Total:17542      MisBP:0   MisRate:0.00%    MPKI:0.00
PC:2c8aa     Total:21      MisBP:0   MisRate:0.00%    MPKI:0.00
PC:14812     Total:40      MisBP:0   MisRate:0.00%    MPKI:0.00
PC:1370a     Total:3102189      MisBP:0   MisRate:0.00%    MPKI:0.00
PC:2c894     Total:21      MisBP:0   MisRate:0.00%    MPKI:0.00
PC:13a08     Total:40      MisBP:0   MisRate:0.00%    MPKI:0.00
PC:13806     Total:9117455      MisBP:0   MisRate:0.00%    MPKI:0.00
PC:137ca     Total:2823069      MisBP:0   MisRate:0.00%    MPKI:0.00
PC:138ce     Total:3016167      MisBP:0   MisRate:0.00%    MPKI:0.00
PC:2cdea     Total:2      MisBP:0   MisRate:0.00%    MPKI:0.00
PC:10190     Total:2      MisBP:0   MisRate:0.00%    MPKI:0.00
PC:136cc     Total:3401404      MisBP:0   MisRate:0.00%    MPKI:0.00
PC:2d500     Total:37      MisBP:0   MisRate:0.00%    MPKI:0.00
PC:33112     Total:1      MisBP:0   MisRate:0.00%    MPKI:0.00
PC:136c6     Total:3407660      MisBP:0   MisRate:0.00%    MPKI:0.00
PC:327f4     Total:1      MisBP:0   MisRate:0.00%    MPKI:0.00
PC:138c8     Total:3016561      MisBP:0   MisRate:0.00%    MPKI:0.00
PC:2cac4     Total:1      MisBP:0   MisRate:0.00%    MPKI:0.00
PC:10eba     Total:13      MisBP:0   MisRate:0.00%    MPKI:0.00
PC:324bc     Total:2      MisBP:0   MisRate:0.00%    MPKI:0.00
PC:13a1e     Total:13      MisBP:0   MisRate:0.00%    MPKI:0.00
PC:2c890     Total:21      MisBP:0   MisRate:0.00%    MPKI:0.00
PC:13a04     Total:40      MisBP:0   MisRate:0.00%    MPKI:0.00
PC:2d7e2     Total:8      MisBP:0   MisRate:0.00%    MPKI:0.00
PC:13802     Total:9133638      MisBP:0   MisRate:0.00%    MPKI:0.00
PC:2c8a6     Total:21      MisBP:0   MisRate:0.00%    MPKI:0.00
PC:10eb6     Total:13      MisBP:0   MisRate:0.00%    MPKI:0.00
PC:324b8     Total:2      MisBP:0   MisRate:0.00%    MPKI:0.00
PC:13a1a     Total:13      MisBP:0   MisRate:0.00%    MPKI:0.00
PC:2c88c     Total:23      MisBP:0   MisRate:0.00%    MPKI:0.00
PC:2d9e0     Total:11      MisBP:0   MisRate:0.00%    MPKI:0.00
PC:13a00     Total:40      MisBP:0   MisRate:0.00%    MPKI:0.00
PC:2d3fa     Total:2      MisBP:0   MisRate:0.00%    MPKI:0.00
PC:1380a     Total:8278719      MisBP:0   MisRate:0.00%    MPKI:0.00
PC:1481a     Total:40      MisBP:0   MisRate:0.00%    MPKI:0.00
PC:13846     Total:754556      MisBP:0   MisRate:0.00%    MPKI:0.00
PC:13a18     Total:13      MisBP:0   MisRate:0.00%    MPKI:0.00
PC:13a14     Total:13      MisBP:0   MisRate:0.00%    MPKI:0.00
PC:13712     Total:21286175      MisBP:0   MisRate:0.00%    MPKI:0.00
PC:2d546     Total:45      MisBP:0   MisRate:0.00%    MPKI:0.00
PC:2c89c     Total:21      MisBP:0   MisRate:0.00%    MPKI:0.00
PC:13a10     Total:40      MisBP:0   MisRate:0.00%    MPKI:0.00
PC:2d5a0     Total:16      MisBP:0   MisRate:0.00%    MPKI:0.00
PC:2ef9e     Total:36      MisBP:0   MisRate:0.00%    MPKI:0.00
PC:2caca     Total:1      MisBP:0   MisRate:0.00%    MPKI:0.00
PC:326dc     Total:3      MisBP:0   MisRate:0.00%    MPKI:0.00
PC:13710     Total:3099647      MisBP:0   MisRate:0.00%    MPKI:0.00
PC:13a0c     Total:40      MisBP:0   MisRate:0.00%    MPKI:0.00
PC:2d7ea     Total:5      MisBP:0   MisRate:0.00%    MPKI:0.00
PC:2d7de     Total:8      MisBP:0   MisRate:0.00%    MPKI:0.00
PC:1370c     Total:3100991      MisBP:0   MisRate:0.00%    MPKI:0.00
PC:137ce     Total:2820466      MisBP:0   MisRate:0.00%    MPKI:0.00
PC:2cdee     Total:2      MisBP:0   MisRate:0.00%    MPKI:0.00
PC:10194     Total:4      MisBP:0   MisRate:0.00%    MPKI:0.00
PC:136d0     Total:3388192      MisBP:0   MisRate:0.00%    MPKI:0.00
PC:2cc5a     Total:19      MisBP:0   MisRate:0.00%    MPKI:0.00
PC:2d504     Total:37      MisBP:0   MisRate:0.00%    MPKI:0.00
PC:33116     Total:2      MisBP:0   MisRate:0.00%    MPKI:0.00
PC:2c896     Total:21      MisBP:0   MisRate:0.00%    MPKI:0.00
PC:324a8     Total:2      MisBP:0   MisRate:0.00%    MPKI:0.00
PC:13a0a     Total:40      MisBP:0   MisRate:0.00%    MPKI:0.00
PC:2d7e8     Total:5      MisBP:0   MisRate:0.00%    MPKI:0.00
PC:2d59a     Total:16      MisBP:0   MisRate:0.00%    MPKI:0.00
PC:2ef98     Total:37      MisBP:0   MisRate:0.00%    MPKI:0.00
PC:2d7da     Total:8      MisBP:0   MisRate:0.00%    MPKI:0.00
PC:137e6     Total:2911241      MisBP:0   MisRate:0.00%    MPKI:0.00
PC:137f4     Total:9732995      MisBP:0   MisRate:0.00%    MPKI:0.00
PC:136f6     Total:3203894      MisBP:0   MisRate:0.00%    MPKI:0.00
PC:101e0     Total:1      MisBP:0   MisRate:0.00%    MPKI:0.00
PC:3313c     Total:1      MisBP:0   MisRate:0.00%    MPKI:0.00
PC:137f8     Total:9727239      MisBP:0   MisRate:0.00%    MPKI:0.00
PC:2d58a     Total:61      MisBP:0   MisRate:0.00%    MPKI:0.00
PC:2ef88     Total:37      MisBP:0   MisRate:0.00%    MPKI:0.00
PC:14802     Total:40      MisBP:0   MisRate:0.00%    MPKI:0.00
PC:136fa     Total:3202686      MisBP:0   MisRate:0.00%    MPKI:0.00
PC:2c888     Total:23      MisBP:0   MisRate:0.00%    MPKI:0.00
PC:2d9dc     Total:11      MisBP:0   MisRate:0.00%    MPKI:0.00
PC:32384     Total:3      MisBP:0   MisRate:0.00%    MPKI:0.00
PC:139fc     Total:400      MisBP:0   MisRate:0.00%    MPKI:0.00
PC:2d3f6     Total:2      MisBP:0   MisRate:0.00%    MPKI:0.00
PC:3312c     Total:1      MisBP:0   MisRate:0.00%    MPKI:0.00
PC:137fa     Total:9702626      MisBP:0   MisRate:0.00%    MPKI:0.00
PC:136fc     Total:3199095      MisBP:0   MisRate:0.00%    MPKI:0.00
PC:2d7dc     Total:8      MisBP:0   MisRate:0.00%    MPKI:0.00
PC:137fc     Total:9693713      MisBP:0   MisRate:0.00%    MPKI:0.00
PC:2d58e     Total:61      MisBP:0   MisRate:0.00%    MPKI:0.00
PC:136fe     Total:3111434      MisBP:0   MisRate:0.00%    MPKI:0.00
PC:2d7ce     Total:21      MisBP:0   MisRate:0.00%    MPKI:0.00
PC:137ee     Total:7014036      MisBP:0   MisRate:0.00%    MPKI:0.00
PC:137f0     Total:7010363      MisBP:0   MisRate:0.00%    MPKI:0.00
PC:136f2     Total:3206034      MisBP:0   MisRate:0.00%    MPKI:0.00
PC:2d526     Total:1      MisBP:0   MisRate:0.00%    MPKI:0.00
PC:2d7d2     Total:8      MisBP:0   MisRate:0.00%    MPKI:0.00
PC:2d584     Total:67      MisBP:0   MisRate:0.00%    MPKI:0.00
PC:136f4     Total:3205239      MisBP:0   MisRate:0.00%    MPKI:0.00
PC:327ec     Total:2      MisBP:0   MisRate:0.00%    MPKI:0.00
PC:137fe     Total:9136462      MisBP:0   MisRate:0.00%    MPKI:0.00
PC:2d590     Total:61      MisBP:0   MisRate:0.00%    MPKI:0.00
PC:2d7a2     Total:1      MisBP:0   MisRate:0.00%    MPKI:0.00
PC:137c2     Total:2832790      MisBP:0   MisRate:0.00%    MPKI:0.00
PC:2c8ac     Total:21      MisBP:0   MisRate:0.00%    MPKI:0.00
PC:10ebc     Total:13      MisBP:0   MisRate:0.00%    MPKI:0.00
PC:13a20     Total:13      MisBP:0   MisRate:0.00%    MPKI:0.00
PC:2c8b2     Total:21      MisBP:0   MisRate:0.00%    MPKI:0.00
PC:13828     Total:3000797      MisBP:0   MisRate:0.00%    MPKI:0.00
PC:2d79c     Total:1      MisBP:0   MisRate:0.00%    MPKI:0.00
PC:10b42     Total:5      MisBP:0   MisRate:0.00%    MPKI:0.00
PC:137bc     Total:2899655      MisBP:0   MisRate:0.00%    MPKI:0.00
PC:138c0     Total:2917919      MisBP:0   MisRate:0.00%    MPKI:0.00
PC:2cddc     Total:2      MisBP:0   MisRate:0.00%    MPKI:0.00
PC:136be     Total:3412081      MisBP:0   MisRate:0.00%    MPKI:0.00
PC:2efa0     Total:36      MisBP:0   MisRate:0.00%    MPKI:0.00
PC:2cc48     Total:19      MisBP:0   MisRate:0.00%    MPKI:0.00
PC:2d4f2     Total:38      MisBP:0   MisRate:0.00%    MPKI:0.00
PC:2d79e     Total:1      MisBP:0   MisRate:0.00%    MPKI:0.00
PC:10b44     Total:5      MisBP:0   MisRate:0.00%    MPKI:0.00
PC:137be     Total:2897922      MisBP:0   MisRate:0.00%    MPKI:0.00
PC:2d7a0     Total:1      MisBP:0   MisRate:0.00%    MPKI:0.00
PC:10b46     Total:5      MisBP:0   MisRate:0.00%    MPKI:0.00
PC:2d7c4     Total:159      MisBP:0   MisRate:0.00%    MPKI:0.00
PC:10b6a     Total:1      MisBP:0   MisRate:0.00%    MPKI:0.00
PC:137e4     Total:2911275      MisBP:0   MisRate:0.00%    MPKI:0.00
PC:2d8c8     Total:16      MisBP:0   MisRate:0.00%    MPKI:0.00
PC:138e8     Total:28899      MisBP:0   MisRate:0.00%    MPKI:0.00
PC:136e6     Total:3296991      MisBP:0   MisRate:0.00%    MPKI:0.00
PC:2d51a     Total:40      MisBP:0   MisRate:0.00%    MPKI:0.00
PC:136ca     Total:3406812      MisBP:0   MisRate:0.00%    MPKI:0.00
PC:1397c     Total:50254      MisBP:0   MisRate:0.00%    MPKI:0.00
PC:1397a     Total:50254      MisBP:0   MisRate:0.00%    MPKI:0.00
PC:2d756     Total:37      MisBP:0   MisRate:0.00%    MPKI:0.00
PC:10afc     Total:13      MisBP:0   MisRate:0.00%    MPKI:0.00
PC:13776     Total:839871      MisBP:0   MisRate:0.00%    MPKI:0.00
PC:13978     Total:50235      MisBP:0   MisRate:0.00%    MPKI:0.00
PC:2d752     Total:37      MisBP:0   MisRate:0.00%    MPKI:0.00
PC:13772     Total:840219      MisBP:0   MisRate:0.00%    MPKI:0.00
PC:13974     Total:50237      MisBP:0   MisRate:0.00%    MPKI:0.00
PC:137da     Total:3777335      MisBP:0   MisRate:0.00%    MPKI:0.00
PC:137d6     Total:3778623      MisBP:0   MisRate:0.00%    MPKI:0.00
PC:136d8     Total:3312656      MisBP:0   MisRate:0.00%    MPKI:0.00
PC:2d50c     Total:37      MisBP:0   MisRate:0.00%    MPKI:0.00
PC:3311e     Total:1      MisBP:0   MisRate:0.00%    MPKI:0.00
PC:137c8     Total:2829126      MisBP:0   MisRate:0.00%    MPKI:0.00
PC:1377a     Total:836592      MisBP:0   MisRate:0.00%    MPKI:0.00
PC:2d7a4     Total:1      MisBP:0   MisRate:0.00%    MPKI:0.00
PC:10b4a     Total:5      MisBP:0   MisRate:0.00%    MPKI:0.00
PC:137c4     Total:2829354      MisBP:0   MisRate:0.00%    MPKI:0.00
PC:13c6a     Total:13      MisBP:0   MisRate:0.00%    MPKI:0.00
PC:13866     Total:3042772      MisBP:0   MisRate:0.00%    MPKI:0.00
PC:13c64     Total:14      MisBP:0   MisRate:0.00%    MPKI:0.00
PC:13860     Total:1499      MisBP:0   MisRate:0.00%    MPKI:0.00
PC:13c60     Total:41      MisBP:0   MisRate:0.00%    MPKI:0.00
PC:1385c     Total:1500      MisBP:0   MisRate:0.00%    MPKI:0.00
PC:13824     Total:2385440      MisBP:0   MisRate:0.00%    MPKI:0.00
PC:2d7c0     Total:159      MisBP:0   MisRate:0.00%    MPKI:0.00
PC:10b66     Total:1      MisBP:0   MisRate:0.00%    MPKI:0.00
PC:137e0     Total:3775359      MisBP:0   MisRate:0.00%    MPKI:0.00
PC:2d8be     Total:16      MisBP:0   MisRate:0.00%    MPKI:0.00
PC:13784     Total:827448      MisBP:0   MisRate:0.00%    MPKI:0.00
PC:1016c     Total:4      MisBP:0   MisRate:0.00%    MPKI:0.00
PC:138a4     Total:21586      MisBP:0   MisRate:0.00%    MPKI:0.00
PC:1015c     Total:4      MisBP:0   MisRate:0.00%    MPKI:0.00
PC:13896     Total:50151      MisBP:0   MisRate:0.00%    MPKI:0.00
PC:13892     Total:50114      MisBP:0   MisRate:0.00%    MPKI:0.00
PC:10154     Total:4      MisBP:0   MisRate:0.00%    MPKI:0.00
PC:1388e     Total:50134      MisBP:0   MisRate:0.00%    MPKI:0.00
PC:10150     Total:4      MisBP:0   MisRate:0.00%    MPKI:0.00
PC:1388c     Total:250713      MisBP:0   MisRate:0.00%    MPKI:0.00
PC:13888     Total:50147      MisBP:0   MisRate:0.00%    MPKI:0.00
PC:2d768     Total:26      MisBP:0   MisRate:0.00%    MPKI:0.00
PC:13788     Total:827404      MisBP:0   MisRate:0.00%    MPKI:0.00
PC:2d5bc     Total:45      MisBP:0   MisRate:0.00%    MPKI:0.00
PC:1398a     Total:50066      MisBP:0   MisRate:0.00%    MPKI:0.00
PC:2d764     Total:18      MisBP:0   MisRate:0.00%    MPKI:0.00
PC:138de     Total:21382      MisBP:0   MisRate:0.00%    MPKI:0.00
PC:2d5b8     Total:45      MisBP:0   MisRate:0.00%    MPKI:0.00
PC:13986     Total:50081      MisBP:0   MisRate:0.00%    MPKI:0.00
PC:13782     Total:827451      MisBP:0   MisRate:0.00%    MPKI:0.00
PC:13984     Total:50085      MisBP:0   MisRate:0.00%    MPKI:0.00
PC:2d760     Total:36      MisBP:0   MisRate:0.00%    MPKI:0.00
PC:13780     Total:827646      MisBP:0   MisRate:0.00%    MPKI:0.00
PC:2d5b4     Total:45      MisBP:0   MisRate:0.00%    MPKI:0.00
PC:13982     Total:50093      MisBP:0   MisRate:0.00%    MPKI:0.00
PC:13980     Total:50097      MisBP:0   MisRate:0.00%    MPKI:0.00
PC:1377c     Total:836541      MisBP:0   MisRate:0.00%    MPKI:0.00
PC:2d5b0     Total:45      MisBP:0   MisRate:0.00%    MPKI:0.00
PC:1397e     Total:50227      MisBP:0   MisRate:0.00%    MPKI:0.00
PC:2d75a     Total:10      MisBP:0   MisRate:0.00%    MPKI:0.00
PC:10b00     Total:13      MisBP:0   MisRate:0.00%    MPKI:0.00
PC:13c4c     Total:2      MisBP:0   MisRate:0.00%    MPKI:0.00
PC:13c52     Total:2      MisBP:0   MisRate:0.00%    MPKI:0.00
PC:2d5aa     Total:45      MisBP:0   MisRate:0.00%    MPKI:0.00
PC:2efa8     Total:35      MisBP:0   MisRate:0.00%    MPKI:0.00
PC:2cad4     Total:1      MisBP:0   MisRate:0.00%    MPKI:0.00
PC:137d4     Total:3780617      MisBP:0   MisRate:0.00%    MPKI:0.00
PC:2d8b8     Total:16      MisBP:0   MisRate:0.00%    MPKI:0.00
PC:138d8     Total:21397      MisBP:0   MisRate:0.00%    MPKI:0.00
PC:136d6     Total:3314414      MisBP:0   MisRate:0.00%    MPKI:0.00
PC:2cc60     Total:19      MisBP:0   MisRate:0.00%    MPKI:0.00
PC:2d50a     Total:37      MisBP:0   MisRate:0.00%    MPKI:0.00
PC:3311c     Total:1      MisBP:0   MisRate:0.00%    MPKI:0.00
PC:13c4e     Total:2      MisBP:0   MisRate:0.00%    MPKI:0.00
PC:2d5a6     Total:16      MisBP:0   MisRate:0.00%    MPKI:0.00
PC:2efa4     Total:35      MisBP:0   MisRate:0.00%    MPKI:0.00
PC:1384a     Total:754104      MisBP:0   MisRate:0.00%    MPKI:0.00
PC:33120     Total:1      MisBP:0   MisRate:0.00%    MPKI:0.00
PC:2cf48     Total:19      MisBP:0   MisRate:0.00%    MPKI:0.00
PC:13a2c     Total:21      MisBP:0   MisRate:0.00%    MPKI:0.00
PC:2d5a4     Total:16      MisBP:0   MisRate:0.00%    MPKI:0.00
PC:2efa2     Total:36      MisBP:0   MisRate:0.00%    MPKI:0.00
PC:2cace     Total:1      MisBP:0   MisRate:0.00%    MPKI:0.00
PC:1481c     Total:40      MisBP:0   MisRate:0.00%    MPKI:0.00
PC:326e0     Total:3      MisBP:0   MisRate:0.00%    MPKI:0.00
PC:137d0     Total:3781458      MisBP:0   MisRate:0.00%    MPKI:0.00
PC:138d4     Total:21397      MisBP:0   MisRate:0.00%    MPKI:0.00
PC:2cdf0     Total:2      MisBP:0   MisRate:0.00%    MPKI:0.00
PC:136d2     Total:3384643      MisBP:0   MisRate:0.00%    MPKI:0.00
PC:2cc5c     Total:19      MisBP:0   MisRate:0.00%    MPKI:0.00
PC:2d506     Total:37      MisBP:0   MisRate:0.00%    MPKI:0.00
PC:33118     Total:1      MisBP:0   MisRate:0.00%    MPKI:0.00
PC:2d514     Total:40      MisBP:0   MisRate:0.00%    MPKI:0.00
PC:101a0     Total:2      MisBP:0   MisRate:0.00%    MPKI:0.00
PC:13c5a     Total:41      MisBP:0   MisRate:0.00%    MPKI:0.00
PC:2cf56     Total:1      MisBP:0   MisRate:0.00%    MPKI:0.00
PC:13a3a     Total:5900      MisBP:0   MisRate:0.00%    MPKI:0.00
PC:13820     Total:2387818      MisBP:0   MisRate:0.00%    MPKI:0.00
PC:2cd3c     Total:44      MisBP:0   MisRate:0.00%    MPKI:0.00
PC:2d7be     Total:174      MisBP:0   MisRate:0.00%    MPKI:0.00
PC:10b64     Total:1      MisBP:0   MisRate:0.00%    MPKI:0.00
PC:137de     Total:3776257      MisBP:0   MisRate:0.00%    MPKI:0.00
PC:2d8c2     Total:16      MisBP:0   MisRate:0.00%    MPKI:0.00
PC:138e2     Total:28900      MisBP:0   MisRate:0.00%    MPKI:0.00
PC:2cdfe     Total:2      MisBP:0   MisRate:0.00%    MPKI:0.00
PC:101a4     Total:4      MisBP:0   MisRate:0.00%    MPKI:0.00
PC:136e0     Total:3300977      MisBP:0   MisRate:0.00%    MPKI:0.00
PC:2cc6a     Total:19      MisBP:0   MisRate:0.00%    MPKI:0.00
PC:2c9b6     Total:20      MisBP:0   MisRate:0.00%    MPKI:0.00
PC:33126     Total:1      MisBP:0   MisRate:0.00%    MPKI:0.00
PC:137dc     Total:3776749      MisBP:0   MisRate:0.00%    MPKI:0.00
PC:13c56     Total:13      MisBP:0   MisRate:0.00%    MPKI:0.00
PC:2efac     Total:140      MisBP:0   MisRate:0.00%    MPKI:0.00
PC:2cad8     Total:1      MisBP:0   MisRate:0.00%    MPKI:0.00
PC:14826     Total:40      MisBP:0   MisRate:0.00%    MPKI:0.00
PC:13852     Total:754261      MisBP:0   MisRate:0.00%    MPKI:0.00
PC:137d8     Total:3777934      MisBP:0   MisRate:0.00%    MPKI:0.00
PC:2d8bc     Total:16      MisBP:0   MisRate:0.00%    MPKI:0.00
PC:138dc     Total:21382      MisBP:0   MisRate:0.00%    MPKI:0.00
PC:2cdf8     Total:2      MisBP:0   MisRate:0.00%    MPKI:0.00
PC:136da     Total:3309500      MisBP:0   MisRate:0.00%    MPKI:0.00
PC:2cc64     Total:19      MisBP:0   MisRate:0.00%    MPKI:0.00
PC:2d50e     Total:37      MisBP:0   MisRate:0.00%    MPKI:0.00
PC:2dc72     Total:2      MisBP:0   MisRate:0.00%    MPKI:0.00
PC:2ca34     Total:20      MisBP:0   MisRate:0.00%    MPKI:0.00
PC:2dc9e     Total:1      MisBP:0   MisRate:0.00%    MPKI:0.00
PC:2ca28     Total:1      MisBP:0   MisRate:0.00%    MPKI:0.00
PC:2dc92     Total:1      MisBP:0   MisRate:0.00%    MPKI:0.00
PC:2ca20     Total:1      MisBP:0   MisRate:0.00%    MPKI:0.00
PC:2dc8a     Total:1      MisBP:0   MisRate:0.00%    MPKI:0.00
PC:2ca16     Total:1      MisBP:0   MisRate:0.00%    MPKI:0.00
PC:32628     Total:35      MisBP:0   MisRate:0.00%    MPKI:0.00
PC:2ca12     Total:1      MisBP:0   MisRate:0.00%    MPKI:0.00
PC:32624     Total:36      MisBP:0   MisRate:0.00%    MPKI:0.00
PC:2ca04     Total:1      MisBP:0   MisRate:0.00%    MPKI:0.00
PC:2dc6e     Total:2      MisBP:0   MisRate:0.00%    MPKI:0.00
PC:2ca00     Total:1      MisBP:0   MisRate:0.00%    MPKI:0.00
PC:11018     Total:17      MisBP:0   MisRate:0.00%    MPKI:0.00
PC:2ca08     Total:1      MisBP:0   MisRate:0.00%    MPKI:0.00
PC:2dca6     Total:1      MisBP:0   MisRate:0.00%    MPKI:0.00
PC:2c9f6     Total:2      MisBP:0   MisRate:0.00%    MPKI:0.00
PC:11006     Total:17      MisBP:0   MisRate:0.00%    MPKI:0.00
PC:32608     Total:36      MisBP:0   MisRate:0.00%    MPKI:0.00
PC:2dc60     Total:2      MisBP:0   MisRate:0.00%    MPKI:0.00
PC:2c9de     Total:20      MisBP:0   MisRate:0.00%    MPKI:0.00
PC:10fee     Total:14      MisBP:0   MisRate:0.00%    MPKI:0.00
PC:325f0     Total:36      MisBP:0   MisRate:0.00%    MPKI:0.00
PC:2c9d2     Total:20      MisBP:0   MisRate:0.00%    MPKI:0.00
PC:10fe2     Total:14      MisBP:0   MisRate:0.00%    MPKI:0.00
PC:325e4     Total:36      MisBP:0   MisRate:0.00%    MPKI:0.00
PC:2cc54     Total:19      MisBP:0   MisRate:0.00%    MPKI:0.00
PC:2cc50     Total:19      MisBP:0   MisRate:0.00%    MPKI:0.00
PC:2cc4c     Total:19      MisBP:0   MisRate:0.00%    MPKI:0.00
PC:2c9b4     Total:1      MisBP:0   MisRate:0.00%    MPKI:0.00
PC:2c9a6     Total:1      MisBP:0   MisRate:0.00%    MPKI:0.00
PC:2dcbc     Total:3      MisBP:0   MisRate:0.00%    MPKI:0.00
PC:2dcca     Total:3      MisBP:0   MisRate:0.00%    MPKI:0.00
PC:2ca5c     Total:10      MisBP:0   MisRate:0.00%    MPKI:0.00
PC:2ef30     Total:60      MisBP:0   MisRate:0.00%    MPKI:0.00
PC:2dcc6     Total:3      MisBP:0   MisRate:0.00%    MPKI:0.00
PC:2ca5a     Total:10      MisBP:0   MisRate:0.00%    MPKI:0.00
PC:2ef2e     Total:60      MisBP:0   MisRate:0.00%    MPKI:0.00
PC:3266c     Total:33      MisBP:0   MisRate:0.00%    MPKI:0.00
PC:2dcc4     Total:3      MisBP:0   MisRate:0.00%    MPKI:0.00
PC:2ca58     Total:10      MisBP:0   MisRate:0.00%    MPKI:0.00
PC:2ef2c     Total:60      MisBP:0   MisRate:0.00%    MPKI:0.00
PC:2ca54     Total:10      MisBP:0   MisRate:0.00%    MPKI:0.00
PC:2ef28     Total:60      MisBP:0   MisRate:0.00%    MPKI:0.00
PC:2ca52     Total:10      MisBP:0   MisRate:0.00%    MPKI:0.00
PC:2ef26     Total:63      MisBP:0   MisRate:0.00%    MPKI:0.00
PC:32664     Total:33      MisBP:0   MisRate:0.00%    MPKI:0.00
PC:325b8     Total:36      MisBP:0   MisRate:0.00%    MPKI:0.00
PC:2ca50     Total:10      MisBP:0   MisRate:0.00%    MPKI:0.00
PC:2dcba     Total:3      MisBP:0   MisRate:0.00%    MPKI:0.00
PC:2ca4c     Total:10      MisBP:0   MisRate:0.00%    MPKI:0.00
PC:2ef20     Total:315      MisBP:0   MisRate:0.00%    MPKI:0.00
PC:2dcb6     Total:3      MisBP:0   MisRate:0.00%    MPKI:0.00
PC:2ca48     Total:10      MisBP:0   MisRate:0.00%    MPKI:0.00
PC:2ef1c     Total:63      MisBP:0   MisRate:0.00%    MPKI:0.00
PC:2dcb2     Total:1      MisBP:0   MisRate:0.00%    MPKI:0.00
PC:2dcae     Total:1      MisBP:0   MisRate:0.00%    MPKI:0.00
PC:2ca42     Total:19      MisBP:0   MisRate:0.00%    MPKI:0.00
PC:32654     Total:33      MisBP:0   MisRate:0.00%    MPKI:0.00
PC:2ca40     Total:19      MisBP:0   MisRate:0.00%    MPKI:0.00
PC:2dcaa     Total:1      MisBP:0   MisRate:0.00%    MPKI:0.00
PC:2ca3c     Total:20      MisBP:0   MisRate:0.00%    MPKI:0.00
PC:32498     Total:7      MisBP:0   MisRate:0.00%    MPKI:0.00
PC:13ba6     Total:19      MisBP:0   MisRate:0.00%    MPKI:0.00
PC:2ca30     Total:1      MisBP:0   MisRate:0.00%    MPKI:0.00
PC:2dc9a     Total:1      MisBP:0   MisRate:0.00%    MPKI:0.00
PC:13ba4     Total:19      MisBP:0   MisRate:0.00%    MPKI:0.00
PC:2ca2e     Total:1      MisBP:0   MisRate:0.00%    MPKI:0.00
PC:32640     Total:33      MisBP:0   MisRate:0.00%    MPKI:0.00
PC:2ca2a     Total:1      MisBP:0   MisRate:0.00%    MPKI:0.00
PC:1103a     Total:2      MisBP:0   MisRate:0.00%    MPKI:0.00
PC:3263c     Total:35      MisBP:0   MisRate:0.00%    MPKI:0.00
PC:13b9e     Total:6732      MisBP:0   MisRate:0.00%    MPKI:0.00
PC:2ca26     Total:1      MisBP:0   MisRate:0.00%    MPKI:0.00
PC:11036     Total:3      MisBP:0   MisRate:0.00%    MPKI:0.00
PC:32638     Total:35      MisBP:0   MisRate:0.00%    MPKI:0.00
PC:13b9a     Total:3367      MisBP:0   MisRate:0.00%    MPKI:0.00
PC:2c886     Total:23      MisBP:0   MisRate:0.00%    MPKI:0.00
PC:32644     Total:33      MisBP:0   MisRate:0.00%    MPKI:0.00
PC:2d9da     Total:11      MisBP:0   MisRate:0.00%    MPKI:0.00
PC:2c882     Total:23      MisBP:0   MisRate:0.00%    MPKI:0.00
PC:2d9d6     Total:1      MisBP:0   MisRate:0.00%    MPKI:0.00
PC:2d9d4     Total:1      MisBP:0   MisRate:0.00%    MPKI:0.00
PC:2c87e     Total:238      MisBP:0   MisRate:0.00%    MPKI:0.00
PC:32490     Total:17      MisBP:0   MisRate:0.00%    MPKI:0.00
PC:2d9d2     Total:1      MisBP:0   MisRate:0.00%    MPKI:0.00
PC:2c87c     Total:24      MisBP:0   MisRate:0.00%    MPKI:0.00
PC:2d9d0     Total:1      MisBP:0   MisRate:0.00%    MPKI:0.00
PC:2d9ce     Total:1      MisBP:0   MisRate:0.00%    MPKI:0.00
PC:2d9cc     Total:1      MisBP:0   MisRate:0.00%    MPKI:0.00
PC:2d9ca     Total:27      MisBP:0   MisRate:0.00%    MPKI:0.00
PC:2d9c6     Total:27      MisBP:0   MisRate:0.00%    MPKI:0.00
PC:2d9c4     Total:27      MisBP:0   MisRate:0.00%    MPKI:0.00
PC:2f444     Total:32      MisBP:0   MisRate:0.00%    MPKI:0.00
PC:2c99c     Total:1      MisBP:0   MisRate:0.00%    MPKI:0.00
PC:2c990     Total:19      MisBP:0   MisRate:0.00%    MPKI:0.00
PC:2c8a2     Total:21      MisBP:0   MisRate:0.00%    MPKI:0.00
PC:324b4     Total:2      MisBP:0   MisRate:0.00%    MPKI:0.00
PC:2c89e     Total:21      MisBP:0   MisRate:0.00%    MPKI:0.00
PC:2f49e     Total:26      MisBP:0   MisRate:0.00%    MPKI:0.00
PC:13aae     Total:4385      MisBP:0   MisRate:0.00%    MPKI:0.00
PC:2f460     Total:5      MisBP:0   MisRate:0.00%    MPKI:0.00
PC:13a70     Total:4963      MisBP:0   MisRate:0.00%    MPKI:0.00
PC:2f458     Total:5      MisBP:0   MisRate:0.00%    MPKI:0.00
PC:13a68     Total:5137      MisBP:0   MisRate:0.00%    MPKI:0.00
PC:2f44c     Total:5      MisBP:0   MisRate:0.00%    MPKI:0.00
PC:13a5c     Total:5141      MisBP:0   MisRate:0.00%    MPKI:0.00
PC:2f448     Total:32      MisBP:0   MisRate:0.00%    MPKI:0.00
PC:13a58     Total:5141      MisBP:0   MisRate:0.00%    MPKI:0.00
PC:2ef34     Total:60      MisBP:0   MisRate:0.00%    MPKI:0.00
PC:13a54     Total:5340      MisBP:0   MisRate:0.00%    MPKI:0.00
PC:2f438     Total:34      MisBP:0   MisRate:0.00%    MPKI:0.00
PC:2cf64     Total:1      MisBP:0   MisRate:0.00%    MPKI:0.00
PC:2f430     Total:70      MisBP:0   MisRate:0.00%    MPKI:0.00
PC:2cf5c     Total:1      MisBP:0   MisRate:0.00%    MPKI:0.00
PC:13a40     Total:5345      MisBP:0   MisRate:0.00%    MPKI:0.00
PC:13bae     Total:105      MisBP:0   MisRate:0.00%    MPKI:0.00
PC:2ca38     Total:20      MisBP:0   MisRate:0.00%    MPKI:0.00
PC:2dca2     Total:1      MisBP:0   MisRate:0.00%    MPKI:0.00
PC:13bac     Total:15      MisBP:0   MisRate:0.00%    MPKI:0.00
PC:2ca36     Total:20      MisBP:0   MisRate:0.00%    MPKI:0.00
PC:32648     Total:33      MisBP:0   MisRate:0.00%    MPKI:0.00
PC:13baa     Total:15      MisBP:0   MisRate:0.00%    MPKI:0.00
PC:2ca32     Total:1      MisBP:0   MisRate:0.00%    MPKI:0.00
PC:2ca98     Total:36      MisBP:0   MisRate:0.00%    MPKI:0.00
PC:2ef7c     Total:42      MisBP:0   MisRate:0.00%    MPKI:0.00
PC:147f6     Total:42      MisBP:0   MisRate:0.00%    MPKI:0.00
PC:2caa6     Total:2      MisBP:0   MisRate:0.00%    MPKI:0.00
PC:326b8     Total:4      MisBP:0   MisRate:0.00%    MPKI:0.00
PC:147f0     Total:44      MisBP:0   MisRate:0.00%    MPKI:0.00
PC:326b4     Total:4      MisBP:0   MisRate:0.00%    MPKI:0.00
PC:2ca9e     Total:36      MisBP:0   MisRate:0.00%    MPKI:0.00
PC:326b0     Total:4      MisBP:0   MisRate:0.00%    MPKI:0.00
PC:2ca9c     Total:36      MisBP:0   MisRate:0.00%    MPKI:0.00
PC:2ef70     Total:42      MisBP:0   MisRate:0.00%    MPKI:0.00
PC:147ea     Total:39      MisBP:0   MisRate:0.00%    MPKI:0.00
PC:2ca9a     Total:36      MisBP:0   MisRate:0.00%    MPKI:0.00
PC:2ef6e     Total:42      MisBP:0   MisRate:0.00%    MPKI:0.00
PC:147e8     Total:39      MisBP:0   MisRate:0.00%    MPKI:0.00
PC:326ac     Total:4      MisBP:0   MisRate:0.00%    MPKI:0.00
PC:2caa8     Total:2      MisBP:0   MisRate:0.00%    MPKI:0.00
PC:2ef6c     Total:42      MisBP:0   MisRate:0.00%    MPKI:0.00
PC:2ca96     Total:36      MisBP:0   MisRate:0.00%    MPKI:0.00
PC:2ef6a     Total:42      MisBP:0   MisRate:0.00%    MPKI:0.00
PC:147e4     Total:39      MisBP:0   MisRate:0.00%    MPKI:0.00
PC:326a8     Total:4      MisBP:0   MisRate:0.00%    MPKI:0.00
PC:2ca92     Total:36      MisBP:0   MisRate:0.00%    MPKI:0.00
PC:2ef66     Total:37      MisBP:0   MisRate:0.00%    MPKI:0.00
PC:147e0     Total:39      MisBP:0   MisRate:0.00%    MPKI:0.00
PC:326a4     Total:4      MisBP:0   MisRate:0.00%    MPKI:0.00
PC:2ca90     Total:36      MisBP:0   MisRate:0.00%    MPKI:0.00
PC:2ef64     Total:37      MisBP:0   MisRate:0.00%    MPKI:0.00
PC:2dcfa     Total:1      MisBP:0   MisRate:0.00%    MPKI:0.00
PC:2ca8e     Total:36      MisBP:0   MisRate:0.00%    MPKI:0.00
PC:2ef62     Total:37      MisBP:0   MisRate:0.00%    MPKI:0.00
PC:147dc     Total:351      MisBP:0   MisRate:0.00%    MPKI:0.00
PC:2ef8c     Total:37      MisBP:0   MisRate:0.00%    MPKI:0.00
PC:2c988     Total:259      MisBP:0   MisRate:0.00%    MPKI:0.00
PC:2cd7a     Total:1      MisBP:0   MisRate:0.00%    MPKI:0.00
PC:1385e     Total:1500      MisBP:0   MisRate:0.00%    MPKI:0.00
PC:2cd5a     Total:1      MisBP:0   MisRate:0.00%    MPKI:0.00
PC:2cd4a     Total:43      MisBP:0   MisRate:0.00%    MPKI:0.00
PC:2cd42     Total:43      MisBP:0   MisRate:0.00%    MPKI:0.00
PC:2cd36     Total:36      MisBP:0   MisRate:0.00%    MPKI:0.00
PC:1381a     Total:2392074      MisBP:0   MisRate:0.00%    MPKI:0.00
PC:2cabc     Total:2      MisBP:0   MisRate:0.00%    MPKI:0.00
PC:2ef90     Total:37      MisBP:0   MisRate:0.00%    MPKI:0.00
PC:1480a     Total:40      MisBP:0   MisRate:0.00%    MPKI:0.00
PC:2caba     Total:2      MisBP:0   MisRate:0.00%    MPKI:0.00
PC:2ef8e     Total:37      MisBP:0   MisRate:0.00%    MPKI:0.00
PC:326cc     Total:3      MisBP:0   MisRate:0.00%    MPKI:0.00
PC:2cab8     Total:2      MisBP:0   MisRate:0.00%    MPKI:0.00
PC:326a0     Total:4      MisBP:0   MisRate:0.00%    MPKI:0.00
PC:14806     Total:40      MisBP:0   MisRate:0.00%    MPKI:0.00
PC:2cab6     Total:2      MisBP:0   MisRate:0.00%    MPKI:0.00
PC:2ef8a     Total:37      MisBP:0   MisRate:0.00%    MPKI:0.00
PC:326c8     Total:3      MisBP:0   MisRate:0.00%    MPKI:0.00
PC:2cab2     Total:2      MisBP:0   MisRate:0.00%    MPKI:0.00
PC:326c4     Total:3      MisBP:0   MisRate:0.00%    MPKI:0.00
PC:2caae     Total:2      MisBP:0   MisRate:0.00%    MPKI:0.00
PC:2ef82     Total:38      MisBP:0   MisRate:0.00%    MPKI:0.00
PC:147fc     Total:42      MisBP:0   MisRate:0.00%    MPKI:0.00
PC:326c0     Total:3      MisBP:0   MisRate:0.00%    MPKI:0.00
PC:2caaa     Total:2      MisBP:0   MisRate:0.00%    MPKI:0.00
PC:2ef7e     Total:42      MisBP:0   MisRate:0.00%    MPKI:0.00
PC:147f8     Total:42      MisBP:0   MisRate:0.00%    MPKI:0.00
PC:326bc     Total:4      MisBP:0   MisRate:0.00%    MPKI:0.00
PC:2dcdc     Total:3      MisBP:0   MisRate:0.00%    MPKI:0.00
PC:13890     Total:50134      MisBP:0   MisRate:0.00%    MPKI:0.00
PC:2ca7c     Total:38      MisBP:0   MisRate:0.00%    MPKI:0.00
PC:2ef50     Total:37      MisBP:0   MisRate:0.00%    MPKI:0.00
PC:2dce6     Total:1      MisBP:0   MisRate:0.00%    MPKI:0.00
PC:2ca7a     Total:38      MisBP:0   MisRate:0.00%    MPKI:0.00
PC:3268c     Total:33      MisBP:0   MisRate:0.00%    MPKI:0.00
PC:2dce4     Total:1      MisBP:0   MisRate:0.00%    MPKI:0.00
PC:2ca78     Total:38      MisBP:0   MisRate:0.00%    MPKI:0.00
PC:2ef4c     Total:37      MisBP:0   MisRate:0.00%    MPKI:0.00
PC:2dce2     Total:1      MisBP:0   MisRate:0.00%    MPKI:0.00
PC:2ca74     Total:38      MisBP:0   MisRate:0.00%    MPKI:0.00
PC:2ef48     Total:37      MisBP:0   MisRate:0.00%    MPKI:0.00
PC:2dcde     Total:1      MisBP:0   MisRate:0.00%    MPKI:0.00
PC:2ca72     Total:38      MisBP:0   MisRate:0.00%    MPKI:0.00
PC:32684     Total:33      MisBP:0   MisRate:0.00%    MPKI:0.00
PC:2cdac     Total:19      MisBP:0   MisRate:0.00%    MPKI:0.00
PC:2ca70     Total:15      MisBP:0   MisRate:0.00%    MPKI:0.00
PC:2ef44     Total:37      MisBP:0   MisRate:0.00%    MPKI:0.00
PC:2dcda     Total:3      MisBP:0   MisRate:0.00%    MPKI:0.00
PC:2ef40     Total:37      MisBP:0   MisRate:0.00%    MPKI:0.00
PC:2dcd6     Total:3      MisBP:0   MisRate:0.00%    MPKI:0.00
PC:2ca68     Total:10      MisBP:0   MisRate:0.00%    MPKI:0.00
PC:2ef3c     Total:53      MisBP:0   MisRate:0.00%    MPKI:0.00
PC:2ca66     Total:10      MisBP:0   MisRate:0.00%    MPKI:0.00
PC:2ef3a     Total:53      MisBP:0   MisRate:0.00%    MPKI:0.00
PC:32678     Total:33      MisBP:0   MisRate:0.00%    MPKI:0.00
PC:2dcd0     Total:3      MisBP:0   MisRate:0.00%    MPKI:0.00
PC:2ca64     Total:10      MisBP:0   MisRate:0.00%    MPKI:0.00
PC:2ef38     Total:57      MisBP:0   MisRate:0.00%    MPKI:0.00
PC:2ca60     Total:10      MisBP:0   MisRate:0.00%    MPKI:0.00
PC:2dcee     Total:1      MisBP:0   MisRate:0.00%    MPKI:0.00
PC:2ca8c     Total:36      MisBP:0   MisRate:0.00%    MPKI:0.00
PC:2ef60     Total:37      MisBP:0   MisRate:0.00%    MPKI:0.00
PC:2dcf6     Total:1      MisBP:0   MisRate:0.00%    MPKI:0.00
PC:2ca8a     Total:36      MisBP:0   MisRate:0.00%    MPKI:0.00
PC:2ef5e     Total:37      MisBP:0   MisRate:0.00%    MPKI:0.00
PC:3269c     Total:4      MisBP:0   MisRate:0.00%    MPKI:0.00
PC:2dcf4     Total:1      MisBP:0   MisRate:0.00%    MPKI:0.00
PC:2ca88     Total:36      MisBP:0   MisRate:0.00%    MPKI:0.00
PC:2ef5c     Total:37      MisBP:0   MisRate:0.00%    MPKI:0.00
PC:2dcf2     Total:1      MisBP:0   MisRate:0.00%    MPKI:0.00
PC:2ca86     Total:36      MisBP:0   MisRate:0.00%    MPKI:0.00
PC:2ef5a     Total:37      MisBP:0   MisRate:0.00%    MPKI:0.00
PC:32698     Total:4      MisBP:0   MisRate:0.00%    MPKI:0.00
PC:2ca84     Total:36      MisBP:0   MisRate:0.00%    MPKI:0.00
PC:2ef58     Total:37      MisBP:0   MisRate:0.00%    MPKI:0.00
PC:2d9c2     Total:27      MisBP:0   MisRate:0.00%    MPKI:0.00
PC:2ca80     Total:36      MisBP:0   MisRate:0.00%    MPKI:0.00
PC:2ef54     Total:37      MisBP:0   MisRate:0.00%    MPKI:0.00
PC:2dcea     Total:1      MisBP:0   MisRate:0.00%    MPKI:0.00
PC:2cdbe     Total:1      MisBP:0   MisRate:0.00%    MPKI:0.00
PC:138a2     Total:21586      MisBP:0   MisRate:0.00%    MPKI:0.00
PC:10164     Total:4      MisBP:0   MisRate:0.00%    MPKI:0.00
PC:2cdba     Total:1      MisBP:0   MisRate:0.00%    MPKI:0.00
PC:1389e     Total:21586      MisBP:0   MisRate:0.00%    MPKI:0.00
PC:10160     Total:4      MisBP:0   MisRate:0.00%    MPKI:0.00
PC:2cdb8     Total:19      MisBP:0   MisRate:0.00%    MPKI:0.00
PC:1389c     Total:21587      MisBP:0   MisRate:0.00%    MPKI:0.00
PC:2cdb4     Total:19      MisBP:0   MisRate:0.00%    MPKI:0.00
PC:2cdb0     Total:19      MisBP:0   MisRate:0.00%    MPKI:0.00
PC:13894     Total:50114      MisBP:0   MisRate:0.00%    MPKI:0.00
PC:13b90     Total:3368      MisBP:0   MisRate:0.00%    MPKI:0.00
PC:1382a     Total:3000475      MisBP:0   MisRate:0.00%    MPKI:0.00
PC:2d5f0     Total:2      MisBP:0   MisRate:0.00%    MPKI:0.00
PC:2d5ee     Total:2      MisBP:0   MisRate:0.00%    MPKI:0.00
PC:2ca22     Total:1      MisBP:0   MisRate:0.00%    MPKI:0.00
PC:11032     Total:3      MisBP:0   MisRate:0.00%    MPKI:0.00
PC:32634     Total:35      MisBP:0   MisRate:0.00%    MPKI:0.00
PC:2dc8c     Total:1      MisBP:0   MisRate:0.00%    MPKI:0.00
PC:13b96     Total:3368      MisBP:0   MisRate:0.00%    MPKI:0.00
PC:2ca1e     Total:1      MisBP:0   MisRate:0.00%    MPKI:0.00
PC:1102e     Total:3      MisBP:0   MisRate:0.00%    MPKI:0.00
PC:32630     Total:35      MisBP:0   MisRate:0.00%    MPKI:0.00
PC:2dc88     Total:1      MisBP:0   MisRate:0.00%    MPKI:0.00
PC:13b92     Total:3368      MisBP:0   MisRate:0.00%    MPKI:0.00
PC:2ca1c     Total:1      MisBP:0   MisRate:0.00%    MPKI:0.00
PC:1102c     Total:17      MisBP:0   MisRate:0.00%    MPKI:0.00
PC:2cd46     Total:43      MisBP:0   MisRate:0.00%    MPKI:0.00
PC:2ca18     Total:1      MisBP:0   MisRate:0.00%    MPKI:0.00
PC:11028     Total:17      MisBP:0   MisRate:0.00%    MPKI:0.00
PC:2dc82     Total:1      MisBP:0   MisRate:0.00%    MPKI:0.00
PC:13b8c     Total:3369      MisBP:0   MisRate:0.00%    MPKI:0.00
PC:2ca14     Total:1      MisBP:0   MisRate:0.00%    MPKI:0.00
PC:11024     Total:17      MisBP:0   MisRate:0.00%    MPKI:0.00
PC:2dc7e     Total:1      MisBP:0   MisRate:0.00%    MPKI:0.00
PC:13b88     Total:3369      MisBP:0   MisRate:0.00%    MPKI:0.00
PC:2ca10     Total:1      MisBP:0   MisRate:0.00%    MPKI:0.00
PC:11020     Total:17      MisBP:0   MisRate:0.00%    MPKI:0.00
PC:2dc7a     Total:2      MisBP:0   MisRate:0.00%    MPKI:0.00
PC:13b84     Total:3369      MisBP:0   MisRate:0.00%    MPKI:0.00
PC:2ca0e     Total:1      MisBP:0   MisRate:0.00%    MPKI:0.00
PC:32620     Total:36      MisBP:0   MisRate:0.00%    MPKI:0.00
PC:2dc78     Total:2      MisBP:0   MisRate:0.00%    MPKI:0.00
PC:1383c     Total:795960      MisBP:0   MisRate:0.00%    MPKI:0.00
PC:2cd68     Total:1      MisBP:0   MisRate:0.00%    MPKI:0.00
PC:2d612     Total:14      MisBP:0   MisRate:0.00%    MPKI:0.00
PC:2d610     Total:14      MisBP:0   MisRate:0.00%    MPKI:0.00
PC:2cd64     Total:1      MisBP:0   MisRate:0.00%    MPKI:0.00
PC:13848     Total:754546      MisBP:0   MisRate:0.00%    MPKI:0.00
PC:2d60e     Total:14      MisBP:0   MisRate:0.00%    MPKI:0.00
PC:2d60c     Total:14      MisBP:0   MisRate:0.00%    MPKI:0.00
PC:2cd60     Total:1      MisBP:0   MisRate:0.00%    MPKI:0.00
PC:13844     Total:754569      MisBP:0   MisRate:0.00%    MPKI:0.00
PC:2cd5e     Total:1      MisBP:0   MisRate:0.00%    MPKI:0.00
PC:2d608     Total:51      MisBP:0   MisRate:0.00%    MPKI:0.00
PC:2cd5c     Total:1      MisBP:0   MisRate:0.00%    MPKI:0.00
PC:13840     Total:754765      MisBP:0   MisRate:0.00%    MPKI:0.00
PC:2d606     Total:51      MisBP:0   MisRate:0.00%    MPKI:0.00
PC:2cd58     Total:1      MisBP:0   MisRate:0.00%    MPKI:0.00
PC:13b82     Total:16      MisBP:0   MisRate:0.00%    MPKI:0.00
PC:2d602     Total:51      MisBP:0   MisRate:0.00%    MPKI:0.00
PC:2d600     Total:51      MisBP:0   MisRate:0.00%    MPKI:0.00
PC:13838     Total:796073      MisBP:0   MisRate:0.00%    MPKI:0.00
PC:2d5fe     Total:52      MisBP:0   MisRate:0.00%    MPKI:0.00
PC:2cd52     Total:43      MisBP:0   MisRate:0.00%    MPKI:0.00
PC:13836     Total:814209      MisBP:0   MisRate:0.00%    MPKI:0.00
PC:2d5fc     Total:52      MisBP:0   MisRate:0.00%    MPKI:0.00
PC:2cd50     Total:43      MisBP:0   MisRate:0.00%    MPKI:0.00
PC:2d5fa     Total:52      MisBP:0   MisRate:0.00%    MPKI:0.00
PC:2cd4e     Total:43      MisBP:0   MisRate:0.00%    MPKI:0.00
PC:13832     Total:815549      MisBP:0   MisRate:0.00%    MPKI:0.00
PC:2d5f8     Total:52      MisBP:0   MisRate:0.00%    MPKI:0.00
PC:2d5f6     Total:52      MisBP:0   MisRate:0.00%    MPKI:0.00
PC:2d5f2     Total:53      MisBP:0   MisRate:0.00%    MPKI:0.00
PC:13b3c     Total:6770      MisBP:0   MisRate:0.00%    MPKI:0.00
PC:2c9d8     Total:20      MisBP:0   MisRate:0.00%    MPKI:0.00
PC:13b4c     Total:6359      MisBP:0   MisRate:0.00%    MPKI:0.00
PC:2c9d6     Total:20      MisBP:0   MisRate:0.00%    MPKI:0.00
PC:10fe6     Total:14      MisBP:0   MisRate:0.00%    MPKI:0.00
PC:325e8     Total:36      MisBP:0   MisRate:0.00%    MPKI:0.00
PC:13b4a     Total:6360      MisBP:0   MisRate:0.00%    MPKI:0.00
PC:13b48     Total:6360      MisBP:0   MisRate:0.00%    MPKI:0.00
PC:13b44     Total:6360      MisBP:0   MisRate:0.00%    MPKI:0.00
PC:2c9ce     Total:20      MisBP:0   MisRate:0.00%    MPKI:0.00
PC:325e0     Total:36      MisBP:0   MisRate:0.00%    MPKI:0.00
PC:13b42     Total:6360      MisBP:0   MisRate:0.00%    MPKI:0.00
PC:2c9ca     Total:20      MisBP:0   MisRate:0.00%    MPKI:0.00
PC:325dc     Total:36      MisBP:0   MisRate:0.00%    MPKI:0.00
PC:13b3e     Total:6770      MisBP:0   MisRate:0.00%    MPKI:0.00
PC:2c9c8     Total:20      MisBP:0   MisRate:0.00%    MPKI:0.00
PC:13b4e     Total:6359      MisBP:0   MisRate:0.00%    MPKI:0.00
PC:13b3a     Total:6720      MisBP:0   MisRate:0.00%    MPKI:0.00
PC:2c9c4     Total:20      MisBP:0   MisRate:0.00%    MPKI:0.00
PC:13b38     Total:6761      MisBP:0   MisRate:0.00%    MPKI:0.00
PC:2c9c2     Total:20      MisBP:0   MisRate:0.00%    MPKI:0.00
PC:325d4     Total:36      MisBP:0   MisRate:0.00%    MPKI:0.00
PC:13b36     Total:6761      MisBP:0   MisRate:0.00%    MPKI:0.00
PC:13b34     Total:6855      MisBP:0   MisRate:0.00%    MPKI:0.00
PC:2c9be     Total:20      MisBP:0   MisRate:0.00%    MPKI:0.00
PC:325d0     Total:36      MisBP:0   MisRate:0.00%    MPKI:0.00
PC:13b32     Total:6856      MisBP:0   MisRate:0.00%    MPKI:0.00
PC:325cc     Total:36      MisBP:0   MisRate:0.00%    MPKI:0.00
PC:13b2e     Total:20155      MisBP:0   MisRate:0.00%    MPKI:0.00
PC:2c9b8     Total:20      MisBP:0   MisRate:0.00%    MPKI:0.00
PC:13b2c     Total:20162      MisBP:0   MisRate:0.00%    MPKI:0.00
PC:11002     Total:17      MisBP:0   MisRate:0.00%    MPKI:0.00
PC:13b80     Total:16      MisBP:0   MisRate:0.00%    MPKI:0.00
PC:2c9ea     Total:2      MisBP:0   MisRate:0.00%    MPKI:0.00
PC:10ffa     Total:11      MisBP:0   MisRate:0.00%    MPKI:0.00
PC:325fc     Total:36      MisBP:0   MisRate:0.00%    MPKI:0.00
PC:13b5e     Total:6249      MisBP:0   MisRate:0.00%    MPKI:0.00
PC:1100a     Total:17      MisBP:0   MisRate:0.00%    MPKI:0.00
PC:3260c     Total:36      MisBP:0   MisRate:0.00%    MPKI:0.00
PC:2dc64     Total:2      MisBP:0   MisRate:0.00%    MPKI:0.00
PC:10ff8     Total:11      MisBP:0   MisRate:0.00%    MPKI:0.00
PC:13b5c     Total:6249      MisBP:0   MisRate:0.00%    MPKI:0.00
PC:2c9e6     Total:20      MisBP:0   MisRate:0.00%    MPKI:0.00
PC:325f8     Total:36      MisBP:0   MisRate:0.00%    MPKI:0.00
PC:2c9e4     Total:20      MisBP:0   MisRate:0.00%    MPKI:0.00
PC:10ff4     Total:14      MisBP:0   MisRate:0.00%    MPKI:0.00
PC:13b58     Total:6207      MisBP:0   MisRate:0.00%    MPKI:0.00
PC:2d614     Total:13      MisBP:0   MisRate:0.00%    MPKI:0.00
PC:2c9f2     Total:2      MisBP:0   MisRate:0.00%    MPKI:0.00
PC:32604     Total:36      MisBP:0   MisRate:0.00%    MPKI:0.00
PC:2dc5c     Total:2      MisBP:0   MisRate:0.00%    MPKI:0.00
PC:2c9e0     Total:20      MisBP:0   MisRate:0.00%    MPKI:0.00
PC:10ff0     Total:14      MisBP:0   MisRate:0.00%    MPKI:0.00
PC:13b54     Total:6207      MisBP:0   MisRate:0.00%    MPKI:0.00
PC:10ffe     Total:10      MisBP:0   MisRate:0.00%    MPKI:0.00
PC:2c9ee     Total:2      MisBP:0   MisRate:0.00%    MPKI:0.00
PC:32600     Total:36      MisBP:0   MisRate:0.00%    MPKI:0.00
PC:2c9dc     Total:20      MisBP:0   MisRate:0.00%    MPKI:0.00
PC:10fec     Total:14      MisBP:0   MisRate:0.00%    MPKI:0.00
PC:13b50     Total:6352      MisBP:0   MisRate:0.00%    MPKI:0.00
PC:10ffc     Total:11      MisBP:0   MisRate:0.00%    MPKI:0.00
PC:2c9ec     Total:2      MisBP:0   MisRate:0.00%    MPKI:0.00
PC:2d782     Total:7      MisBP:0   MisRate:0.00%    MPKI:0.00
PC:2d8e0     Total:15      MisBP:0   MisRate:0.00%    MPKI:0.00
PC:2d8de     Total:15      MisBP:0   MisRate:0.00%    MPKI:0.00
PC:2d8da     Total:15      MisBP:0   MisRate:0.00%    MPKI:0.00
PC:2d8d6     Total:15      MisBP:0   MisRate:0.00%    MPKI:0.00
PC:2d8d4     Total:15      MisBP:0   MisRate:0.00%    MPKI:0.00
PC:2d8d2     Total:16      MisBP:0   MisRate:0.00%    MPKI:0.00
PC:2d8ce     Total:16      MisBP:0   MisRate:0.00%    MPKI:0.00
PC:2d8ca     Total:16      MisBP:0   MisRate:0.00%    MPKI:0.00
PC:2d8c4     Total:16      MisBP:0   MisRate:0.00%    MPKI:0.00
PC:2d796     Total:1      MisBP:0   MisRate:0.00%    MPKI:0.00
PC:10b3c     Total:17      MisBP:0   MisRate:0.00%    MPKI:0.00
PC:2d792     Total:1      MisBP:0   MisRate:0.00%    MPKI:0.00
PC:10b38     Total:17      MisBP:0   MisRate:0.00%    MPKI:0.00
PC:2d78e     Total:1      MisBP:0   MisRate:0.00%    MPKI:0.00
PC:10b34     Total:17      MisBP:0   MisRate:0.00%    MPKI:0.00
PC:2d8e2     Total:15      MisBP:0   MisRate:0.00%    MPKI:0.00
PC:10b28     Total:15      MisBP:0   MisRate:0.00%    MPKI:0.00
PC:2cf42     Total:19      MisBP:0   MisRate:0.00%    MPKI:0.00
PC:13a26     Total:21      MisBP:0   MisRate:0.00%    MPKI:0.00
PC:2d7ec     Total:5      MisBP:0   MisRate:0.00%    MPKI:0.00
PC:2d7e4     Total:5      MisBP:0   MisRate:0.00%    MPKI:0.00
PC:2d7d6     Total:8      MisBP:0   MisRate:0.00%    MPKI:0.00
PC:2d7cc     Total:21      MisBP:0   MisRate:0.00%    MPKI:0.00
PC:2d7c8     Total:192      MisBP:0   MisRate:0.00%    MPKI:0.00
PC:2d77a     Total:12      MisBP:0   MisRate:0.00%    MPKI:0.00
PC:10b20     Total:15      MisBP:0   MisRate:0.00%    MPKI:0.00
PC:2d774     Total:13      MisBP:0   MisRate:0.00%    MPKI:0.00
PC:10b1a     Total:15      MisBP:0   MisRate:0.00%    MPKI:0.00
PC:10b12     Total:11      MisBP:0   MisRate:0.00%    MPKI:0.00
PC:10b0c     Total:11      MisBP:0   MisRate:0.00%    MPKI:0.00
PC:2d99a     Total:15      MisBP:0   MisRate:0.00%    MPKI:0.00
PC:2d9be     Total:27      MisBP:0   MisRate:0.00%    MPKI:0.00
PC:2d9bc     Total:30      MisBP:0   MisRate:0.00%    MPKI:0.00
PC:2d9b8     Total:32      MisBP:0   MisRate:0.00%    MPKI:0.00
PC:2d9b6     Total:32      MisBP:0   MisRate:0.00%    MPKI:0.00
PC:2d9b4     Total:32      MisBP:0   MisRate:0.00%    MPKI:0.00
PC:2d9b2     Total:32      MisBP:0   MisRate:0.00%    MPKI:0.00
PC:2d9b0     Total:32      MisBP:0   MisRate:0.00%    MPKI:0.00
PC:2d9ae     Total:21      MisBP:0   MisRate:0.00%    MPKI:0.00
PC:2d9ac     Total:21      MisBP:0   MisRate:0.00%    MPKI:0.00
PC:2d9aa     Total:21      MisBP:0   MisRate:0.00%    MPKI:0.00
PC:2d9a4     Total:15      MisBP:0   MisRate:0.00%    MPKI:0.00
PC:2d9a2     Total:15      MisBP:0   MisRate:0.00%    MPKI:0.00
PC:2d9a0     Total:15      MisBP:0   MisRate:0.00%    MPKI:0.00
PC:2d99e     Total:15      MisBP:0   MisRate:0.00%    MPKI:0.00
PC:2d99c     Total:15      MisBP:0   MisRate:0.00%    MPKI:0.00
PC:2d75e     Total:10      MisBP:0   MisRate:0.00%    MPKI:0.00
PC:2d998     Total:15      MisBP:0   MisRate:0.00%    MPKI:0.00
PC:2d994     Total:15      MisBP:0   MisRate:0.00%    MPKI:0.00
PC:2d990     Total:15      MisBP:0   MisRate:0.00%    MPKI:0.00
PC:2d98c     Total:15      MisBP:0   MisRate:0.00%    MPKI:0.00
PC:2d98a     Total:15      MisBP:0   MisRate:0.00%    MPKI:0.00
PC:2d988     Total:15      MisBP:0   MisRate:0.00%    MPKI:0.00
PC:2d986     Total:15      MisBP:0   MisRate:0.00%    MPKI:0.00
PC:2d8fc     Total:19      MisBP:0   MisRate:0.00%    MPKI:0.00
PC:2d8fa     Total:19      MisBP:0   MisRate:0.00%    MPKI:0.00
PC:2d8f4     Total:17      MisBP:0   MisRate:0.00%    MPKI:0.00
PC:2d8f0     Total:14      MisBP:0   MisRate:0.00%    MPKI:0.00
PC:2d8ec     Total:14      MisBP:0   MisRate:0.00%    MPKI:0.00
PC:2d8e6     Total:15      MisBP:0   MisRate:0.00%    MPKI:0.00
PC:2d8e4     Total:15      MisBP:0   MisRate:0.00%    MPKI:0.00
PC:2cd76     Total:1      MisBP:0   MisRate:0.00%    MPKI:0.00
PC:2d632     Total:13      MisBP:0   MisRate:0.00%    MPKI:0.00
PC:2c3c8     Total:1      MisBP:0   MisRate:0.00%    MPKI:0.00
PC:2d630     Total:13      MisBP:0   MisRate:0.00%    MPKI:0.00
PC:2c3c6     Total:1      MisBP:0   MisRate:0.00%    MPKI:0.00
PC:2d62e     Total:13      MisBP:0   MisRate:0.00%    MPKI:0.00
PC:2d62c     Total:13      MisBP:0   MisRate:0.00%    MPKI:0.00
PC:2c3c2     Total:1      MisBP:0   MisRate:0.00%    MPKI:0.00
PC:2d62a     Total:13      MisBP:0   MisRate:0.00%    MPKI:0.00
PC:2c3c0     Total:1      MisBP:0   MisRate:0.00%    MPKI:0.00
PC:2cd7e     Total:1      MisBP:0   MisRate:0.00%    MPKI:0.00
PC:13862     Total:1499      MisBP:0   MisRate:0.00%    MPKI:0.00
PC:2c3be     Total:2      MisBP:0   MisRate:0.00%    MPKI:0.00
PC:2d626     Total:207      MisBP:0   MisRate:0.00%    MPKI:0.00
PC:2d622     Total:198      MisBP:0   MisRate:0.00%    MPKI:0.00
PC:2c3b8     Total:2      MisBP:0   MisRate:0.00%    MPKI:0.00
PC:2d70c     Total:25      MisBP:0   MisRate:0.00%    MPKI:0.00
PC:1385a     Total:1501      MisBP:0   MisRate:0.00%    MPKI:0.00
PC:2d620     Total:198      MisBP:0   MisRate:0.00%    MPKI:0.00
PC:2c3b6     Total:10      MisBP:0   MisRate:0.00%    MPKI:0.00
PC:2d61e     Total:203      MisBP:0   MisRate:0.00%    MPKI:0.00
PC:2c3b4     Total:2      MisBP:0   MisRate:0.00%    MPKI:0.00
PC:2cd72     Total:1      MisBP:0   MisRate:0.00%    MPKI:0.00
PC:13856     Total:1502      MisBP:0   MisRate:0.00%    MPKI:0.00
PC:2d61c     Total:203      MisBP:0   MisRate:0.00%    MPKI:0.00
PC:2cd70     Total:1      MisBP:0   MisRate:0.00%    MPKI:0.00
PC:2d61a     Total:2      MisBP:0   MisRate:0.00%    MPKI:0.00
PC:2cd6c     Total:1      MisBP:0   MisRate:0.00%    MPKI:0.00
PC:2d616     Total:13      MisBP:0   MisRate:0.00%    MPKI:0.00
PC:2cd6a     Total:1      MisBP:0   MisRate:0.00%    MPKI:0.00
PC:1384e     Total:754347      MisBP:0   MisRate:0.00%    MPKI:0.00
PC:2c4ba     Total:1      MisBP:0   MisRate:0.00%    MPKI:0.00
PC:10b04     Total:13      MisBP:0   MisRate:0.00%    MPKI:0.00
PC:2d748     Total:37      MisBP:0   MisRate:0.00%    MPKI:0.00
PC:10aee     Total:13      MisBP:0   MisRate:0.00%    MPKI:0.00
PC:2d744     Total:30      MisBP:0   MisRate:0.00%    MPKI:0.00
PC:10aea     Total:13      MisBP:0   MisRate:0.00%    MPKI:0.00
PC:2d740     Total:30      MisBP:0   MisRate:0.00%    MPKI:0.00
PC:10ae6     Total:13      MisBP:0   MisRate:0.00%    MPKI:0.00
PC:2d738     Total:29      MisBP:0   MisRate:0.00%    MPKI:0.00
PC:10ade     Total:2202      MisBP:0   MisRate:0.00%    MPKI:0.00
PC:2d732     Total:29      MisBP:0   MisRate:0.00%    MPKI:0.00
PC:10ad8     Total:2203      MisBP:0   MisRate:0.00%    MPKI:0.00
PC:2d72e     Total:29      MisBP:0   MisRate:0.00%    MPKI:0.00
PC:2d72c     Total:29      MisBP:0   MisRate:0.00%    MPKI:0.00
PC:2d72a     Total:29      MisBP:0   MisRate:0.00%    MPKI:0.00
PC:2d728     Total:29      MisBP:0   MisRate:0.00%    MPKI:0.00
PC:2d52a     Total:1      MisBP:0   MisRate:0.00%    MPKI:0.00
PC:2d722     Total:14      MisBP:0   MisRate:0.00%    MPKI:0.00
PC:2d720     Total:14      MisBP:0   MisRate:0.00%    MPKI:0.00
PC:2c4b6     Total:1      MisBP:0   MisRate:0.00%    MPKI:0.00
PC:2c4b4     Total:1      MisBP:0   MisRate:0.00%    MPKI:0.00
PC:2d71c     Total:25      MisBP:0   MisRate:0.00%    MPKI:0.00
PC:2c4b2     Total:1      MisBP:0   MisRate:0.00%    MPKI:0.00
PC:2d71a     Total:25      MisBP:0   MisRate:0.00%    MPKI:0.00
PC:2c4b0     Total:1      MisBP:0   MisRate:0.00%    MPKI:0.00
PC:2d718     Total:25      MisBP:0   MisRate:0.00%    MPKI:0.00
PC:2c4ae     Total:1      MisBP:0   MisRate:0.00%    MPKI:0.00
PC:2d714     Total:25      MisBP:0   MisRate:0.00%    MPKI:0.00
PC:2d712     Total:25      MisBP:0   MisRate:0.00%    MPKI:0.00
PC:2c4a8     Total:1      MisBP:0   MisRate:0.00%    MPKI:0.00
PC:2c4a6     Total:1      MisBP:0   MisRate:0.00%    MPKI:0.00
PC:2d674     Total:1      MisBP:0   MisRate:0.00%    MPKI:0.00
PC:2d65a     Total:1      MisBP:0   MisRate:0.00%    MPKI:0.00
PC:2c3f0     Total:1      MisBP:0   MisRate:0.00%    MPKI:0.00
PC:2d65c     Total:1      MisBP:0   MisRate:0.00%    MPKI:0.00
PC:2d65e     Total:1      MisBP:0   MisRate:0.00%    MPKI:0.00
PC:2c3f4     Total:1      MisBP:0   MisRate:0.00%    MPKI:0.00
PC:2d660     Total:1      MisBP:0   MisRate:0.00%    MPKI:0.00
PC:2c3f6     Total:1      MisBP:0   MisRate:0.00%    MPKI:0.00
PC:2d662     Total:1      MisBP:0   MisRate:0.00%    MPKI:0.00
PC:2c3f8     Total:1      MisBP:0   MisRate:0.00%    MPKI:0.00
PC:2d664     Total:1      MisBP:0   MisRate:0.00%    MPKI:0.00
PC:2d668     Total:1      MisBP:0   MisRate:0.00%    MPKI:0.00
PC:2d66a     Total:1      MisBP:0   MisRate:0.00%    MPKI:0.00
PC:2d66c     Total:1      MisBP:0   MisRate:0.00%    MPKI:0.00
PC:2d66e     Total:1      MisBP:0   MisRate:0.00%    MPKI:0.00
PC:2d670     Total:1      MisBP:0   MisRate:0.00%    MPKI:0.00
PC:2c3ec     Total:1      MisBP:0   MisRate:0.00%    MPKI:0.00
PC:2d676     Total:1      MisBP:0   MisRate:0.00%    MPKI:0.00
PC:2d678     Total:1      MisBP:0   MisRate:0.00%    MPKI:0.00
PC:2d67c     Total:1      MisBP:0   MisRate:0.00%    MPKI:0.00
PC:2d9e4     Total:4      MisBP:0   MisRate:0.00%    MPKI:0.00
PC:3238c     Total:1      MisBP:0   MisRate:0.00%    MPKI:0.00
PC:2d9e6     Total:4      MisBP:0   MisRate:0.00%    MPKI:0.00
PC:2d9e8     Total:4      MisBP:0   MisRate:0.00%    MPKI:0.00
PC:32390     Total:1      MisBP:0   MisRate:0.00%    MPKI:0.00
PC:2d9ec     Total:4      MisBP:0   MisRate:0.00%    MPKI:0.00
PC:2d9ee     Total:4      MisBP:0   MisRate:0.00%    MPKI:0.00
PC:2d9f0     Total:14      MisBP:0   MisRate:0.00%    MPKI:0.00
PC:32398     Total:2      MisBP:0   MisRate:0.00%    MPKI:0.00
PC:2d9f2     Total:14      MisBP:0   MisRate:0.00%    MPKI:0.00
PC:2d9f4     Total:14      MisBP:0   MisRate:0.00%    MPKI:0.00
PC:3239c     Total:2      MisBP:0   MisRate:0.00%    MPKI:0.00
PC:2c3d0     Total:1      MisBP:0   MisRate:0.00%    MPKI:0.00
PC:1396a     Total:20      MisBP:0   MisRate:0.00%    MPKI:0.00
PC:1396c     Total:20      MisBP:0   MisRate:0.00%    MPKI:0.00
PC:1396e     Total:20      MisBP:0   MisRate:0.00%    MPKI:0.00
PC:13bb2     Total:4      MisBP:0   MisRate:0.00%    MPKI:0.00
PC:13bb4     Total:4      MisBP:0   MisRate:0.00%    MPKI:0.00
PC:13bb6     Total:4      MisBP:0   MisRate:0.00%    MPKI:0.00
PC:13bb8     Total:4      MisBP:0   MisRate:0.00%    MPKI:0.00
PC:13bbc     Total:6      MisBP:0   MisRate:0.00%    MPKI:0.00
PC:13bbe     Total:6      MisBP:0   MisRate:0.00%    MPKI:0.00
PC:2d634     Total:12      MisBP:0   MisRate:0.00%    MPKI:0.00
PC:2d636     Total:12      MisBP:0   MisRate:0.00%    MPKI:0.00
PC:2c3cc     Total:1      MisBP:0   MisRate:0.00%    MPKI:0.00
PC:2d638     Total:12      MisBP:0   MisRate:0.00%    MPKI:0.00
PC:2c3ce     Total:1      MisBP:0   MisRate:0.00%    MPKI:0.00
PC:2d63a     Total:12      MisBP:0   MisRate:0.00%    MPKI:0.00
PC:2d9f6     Total:14      MisBP:0   MisRate:0.00%    MPKI:0.00
PC:2d63c     Total:12      MisBP:0   MisRate:0.00%    MPKI:0.00
PC:2c3d2     Total:1      MisBP:0   MisRate:0.00%    MPKI:0.00
PC:2d63e     Total:12      MisBP:0   MisRate:0.00%    MPKI:0.00
PC:2d640     Total:9      MisBP:0   MisRate:0.00%    MPKI:0.00
PC:2c3d6     Total:1      MisBP:0   MisRate:0.00%    MPKI:0.00
PC:2d642     Total:9      MisBP:0   MisRate:0.00%    MPKI:0.00
PC:2c3d8     Total:1      MisBP:0   MisRate:0.00%    MPKI:0.00
PC:2d644     Total:1      MisBP:0   MisRate:0.00%    MPKI:0.00
PC:2c3da     Total:1      MisBP:0   MisRate:0.00%    MPKI:0.00
PC:2d648     Total:1      MisBP:0   MisRate:0.00%    MPKI:0.00
PC:2c3de     Total:1      MisBP:0   MisRate:0.00%    MPKI:0.00
PC:2d64c     Total:1      MisBP:0   MisRate:0.00%    MPKI:0.00
PC:2d650     Total:1      MisBP:0   MisRate:0.00%    MPKI:0.00
PC:2d654     Total:1      MisBP:0   MisRate:0.00%    MPKI:0.00
PC:2d656     Total:1      MisBP:0   MisRate:0.00%    MPKI:0.00
PC:2da50     Total:12      MisBP:0   MisRate:0.00%    MPKI:0.00
PC:2e0aa     Total:13      MisBP:0   MisRate:0.00%    MPKI:0.00
PC:2e0ae     Total:13      MisBP:0   MisRate:0.00%    MPKI:0.00
PC:2e0b2     Total:13      MisBP:0   MisRate:0.00%    MPKI:0.00
PC:2e0ba     Total:13      MisBP:0   MisRate:0.00%    MPKI:0.00
PC:2e0be     Total:13      MisBP:0   MisRate:0.00%    MPKI:0.00
PC:2e0ce     Total:1      MisBP:0   MisRate:0.00%    MPKI:0.00
PC:2e0d2     Total:1      MisBP:0   MisRate:0.00%    MPKI:0.00
PC:2e0da     Total:1      MisBP:0   MisRate:0.00%    MPKI:0.00
PC:2e0e4     Total:1      MisBP:0   MisRate:0.00%    MPKI:0.00
PC:2da42     Total:12      MisBP:0   MisRate:0.00%    MPKI:0.00
PC:2da44     Total:12      MisBP:0   MisRate:0.00%    MPKI:0.00
PC:2da48     Total:12      MisBP:0   MisRate:0.00%    MPKI:0.00
PC:2da4a     Total:12      MisBP:0   MisRate:0.00%    MPKI:0.00
PC:2da4c     Total:12      MisBP:0   MisRate:0.00%    MPKI:0.00
PC:323f4     Total:6      MisBP:0   MisRate:0.00%    MPKI:0.00
PC:2da3a     Total:23      MisBP:0   MisRate:0.00%    MPKI:0.00
PC:323f8     Total:3      MisBP:0   MisRate:0.00%    MPKI:0.00
PC:2da54     Total:12      MisBP:0   MisRate:0.00%    MPKI:0.00
PC:323fc     Total:3      MisBP:0   MisRate:0.00%    MPKI:0.00
PC:2da56     Total:12      MisBP:0   MisRate:0.00%    MPKI:0.00
PC:2da58     Total:12      MisBP:0   MisRate:0.00%    MPKI:0.00
PC:32400     Total:3      MisBP:0   MisRate:0.00%    MPKI:0.00
PC:2da5a     Total:12      MisBP:0   MisRate:0.00%    MPKI:0.00
PC:32404     Total:3      MisBP:0   MisRate:0.00%    MPKI:0.00
PC:2da5e     Total:8      MisBP:0   MisRate:0.00%    MPKI:0.00
PC:2da60     Total:1      MisBP:0   MisRate:0.00%    MPKI:0.00
PC:32408     Total:3      MisBP:0   MisRate:0.00%    MPKI:0.00
PC:2da62     Total:1      MisBP:0   MisRate:0.00%    MPKI:0.00
PC:2da64     Total:1      MisBP:0   MisRate:0.00%    MPKI:0.00
PC:3240c     Total:3      MisBP:0   MisRate:0.00%    MPKI:0.00
PC:2da68     Total:1      MisBP:0   MisRate:0.00%    MPKI:0.00
PC:2da10     Total:17      MisBP:0   MisRate:0.00%    MPKI:0.00
PC:323a0     Total:2      MisBP:0   MisRate:0.00%    MPKI:0.00
PC:2d9fa     Total:4      MisBP:0   MisRate:0.00%    MPKI:0.00
PC:2d9fc     Total:4      MisBP:0   MisRate:0.00%    MPKI:0.00
PC:323a4     Total:2      MisBP:0   MisRate:0.00%    MPKI:0.00
PC:2d9fe     Total:4      MisBP:0   MisRate:0.00%    MPKI:0.00
PC:2da00     Total:4      MisBP:0   MisRate:0.00%    MPKI:0.00
PC:323a8     Total:2      MisBP:0   MisRate:0.00%    MPKI:0.00
PC:2da02     Total:4      MisBP:0   MisRate:0.00%    MPKI:0.00
PC:2da04     Total:4      MisBP:0   MisRate:0.00%    MPKI:0.00
PC:323ac     Total:2      MisBP:0   MisRate:0.00%    MPKI:0.00
PC:2da06     Total:4      MisBP:0   MisRate:0.00%    MPKI:0.00
PC:2da08     Total:17      MisBP:0   MisRate:0.00%    MPKI:0.00
PC:323b0     Total:2      MisBP:0   MisRate:0.00%    MPKI:0.00
PC:2da0a     Total:17      MisBP:0   MisRate:0.00%    MPKI:0.00
PC:2da0e     Total:17      MisBP:0   MisRate:0.00%    MPKI:0.00
PC:13966     Total:20      MisBP:0   MisRate:0.00%    MPKI:0.00
PC:323b8     Total:2      MisBP:0   MisRate:0.00%    MPKI:0.00
PC:2da12     Total:17      MisBP:0   MisRate:0.00%    MPKI:0.00
PC:2da16     Total:17      MisBP:0   MisRate:0.00%    MPKI:0.00
PC:2da18     Total:17      MisBP:0   MisRate:0.00%    MPKI:0.00
PC:2da1a     Total:17      MisBP:0   MisRate:0.00%    MPKI:0.00
PC:2da1e     Total:17      MisBP:0   MisRate:0.00%    MPKI:0.00
PC:2da20     Total:17      MisBP:0   MisRate:0.00%    MPKI:0.00
PC:2da22     Total:17      MisBP:0   MisRate:0.00%    MPKI:0.00
PC:2da24     Total:17      MisBP:0   MisRate:0.00%    MPKI:0.00
PC:2da28     Total:17      MisBP:0   MisRate:0.00%    MPKI:0.00
PC:2da2a     Total:17      MisBP:0   MisRate:0.00%    MPKI:0.00
PC:2da2c     Total:17      MisBP:0   MisRate:0.00%    MPKI:0.00
PC:2da32     Total:9      MisBP:0   MisRate:0.00%    MPKI:0.00
PC:2da36     Total:9      MisBP:0   MisRate:0.00%    MPKI:0.00
PC:13c3e     Total:22      MisBP:0   MisRate:0.00%    MPKI:0.00
PC:13c0e     Total:14      MisBP:0   MisRate:0.00%    MPKI:0.00
PC:13c10     Total:14      MisBP:0   MisRate:0.00%    MPKI:0.00
PC:13c14     Total:14      MisBP:0   MisRate:0.00%    MPKI:0.00
PC:13c18     Total:14      MisBP:0   MisRate:0.00%    MPKI:0.00
PC:13c1a     Total:14      MisBP:0   MisRate:0.00%    MPKI:0.00
PC:13c1e     Total:14      MisBP:0   MisRate:0.00%    MPKI:0.00
PC:13c22     Total:14      MisBP:0   MisRate:0.00%    MPKI:0.00
PC:13c26     Total:14      MisBP:0   MisRate:0.00%    MPKI:0.00
PC:13c2a     Total:4370      MisBP:0   MisRate:0.00%    MPKI:0.00
PC:13c2e     Total:4370      MisBP:0   MisRate:0.00%    MPKI:0.00
PC:13c32     Total:2185      MisBP:0   MisRate:0.00%    MPKI:0.00
PC:13c36     Total:22      MisBP:0   MisRate:0.00%    MPKI:0.00
PC:13c38     Total:22      MisBP:0   MisRate:0.00%    MPKI:0.00
PC:13c3a     Total:22      MisBP:0   MisRate:0.00%    MPKI:0.00
PC:13c3c     Total:22      MisBP:0   MisRate:0.00%    MPKI:0.00
PC:13c0c     Total:20      MisBP:0   MisRate:0.00%    MPKI:0.00
PC:13c40     Total:22      MisBP:0   MisRate:0.00%    MPKI:0.00
PC:13c42     Total:22      MisBP:0   MisRate:0.00%    MPKI:0.00
PC:13c44     Total:22      MisBP:0   MisRate:0.00%    MPKI:0.00
PC:13c46     Total:22      MisBP:0   MisRate:0.00%    MPKI:0.00
PC:138f0     Total:197      MisBP:0   MisRate:0.00%    MPKI:0.00
PC:138f4     Total:21      MisBP:0   MisRate:0.00%    MPKI:0.00
PC:138f6     Total:21      MisBP:0   MisRate:0.00%    MPKI:0.00
PC:101b8     Total:14      MisBP:0   MisRate:0.00%    MPKI:0.00
PC:138f8     Total:21      MisBP:0   MisRate:0.00%    MPKI:0.00
PC:138fa     Total:21      MisBP:0   MisRate:0.00%    MPKI:0.00
PC:101bc     Total:2      MisBP:0   MisRate:0.00%    MPKI:0.00
PC:138fc     Total:21      MisBP:0   MisRate:0.00%    MPKI:0.00
PC:13900     Total:19      MisBP:0   MisRate:0.00%    MPKI:0.00
PC:13902     Total:2241      MisBP:0   MisRate:0.00%    MPKI:0.00
PC:101c4     Total:4      MisBP:0   MisRate:0.00%    MPKI:0.00
PC:14898     Total:45      MisBP:0   MisRate:0.00%    MPKI:0.00
PC:32738     Total:3      MisBP:0   MisRate:0.00%    MPKI:0.00
PC:14878     Total:39      MisBP:0   MisRate:0.00%    MPKI:0.00
PC:3273c     Total:3      MisBP:0   MisRate:0.00%    MPKI:0.00
PC:1487a     Total:39      MisBP:0   MisRate:0.00%    MPKI:0.00
PC:1487e     Total:39      MisBP:0   MisRate:0.00%    MPKI:0.00
PC:14882     Total:39      MisBP:0   MisRate:0.00%    MPKI:0.00
PC:14886     Total:39      MisBP:0   MisRate:0.00%    MPKI:0.00
PC:14888     Total:249      MisBP:0   MisRate:0.00%    MPKI:0.00
PC:3274c     Total:3      MisBP:0   MisRate:0.00%    MPKI:0.00
PC:1488c     Total:45      MisBP:0   MisRate:0.00%    MPKI:0.00
PC:32750     Total:3      MisBP:0   MisRate:0.00%    MPKI:0.00
PC:14890     Total:45      MisBP:0   MisRate:0.00%    MPKI:0.00
PC:32754     Total:3      MisBP:0   MisRate:0.00%    MPKI:0.00
PC:14894     Total:45      MisBP:0   MisRate:0.00%    MPKI:0.00
PC:32758     Total:3      MisBP:0   MisRate:0.00%    MPKI:0.00
PC:13906     Total:2241      MisBP:0   MisRate:0.00%    MPKI:0.00
PC:3275c     Total:3      MisBP:0   MisRate:0.00%    MPKI:0.00
PC:1489c     Total:45      MisBP:0   MisRate:0.00%    MPKI:0.00
PC:32760     Total:3      MisBP:0   MisRate:0.00%    MPKI:0.00
PC:10eb8     Total:13      MisBP:0   MisRate:0.00%    MPKI:0.00
PC:10ed2     Total:8      MisBP:0   MisRate:0.00%    MPKI:0.00
PC:10ee6     Total:15      MisBP:0   MisRate:0.00%    MPKI:0.00
PC:10efa     Total:14      MisBP:0   MisRate:0.00%    MPKI:0.00
PC:10fe4     Total:14      MisBP:0   MisRate:0.00%    MPKI:0.00
PC:10fea     Total:14      MisBP:0   MisRate:0.00%    MPKI:0.00
PC:325ec     Total:36      MisBP:0   MisRate:0.00%    MPKI:0.00
PC:10ff2     Total:14      MisBP:0   MisRate:0.00%    MPKI:0.00
PC:325f4     Total:36      MisBP:0   MisRate:0.00%    MPKI:0.00
PC:13c08     Total:98      MisBP:0   MisRate:0.00%    MPKI:0.00
PC:13c0a     Total:14      MisBP:0   MisRate:0.00%    MPKI:0.00
PC:2e0cc     Total:14      MisBP:0   MisRate:0.00%    MPKI:0.00
PC:2e0b8     Total:13      MisBP:0   MisRate:0.00%    MPKI:0.00
PC:101f4     Total:2      MisBP:0   MisRate:0.00%    MPKI:0.00
PC:13936     Total:12      MisBP:0   MisRate:0.00%    MPKI:0.00
PC:101f8     Total:1      MisBP:0   MisRate:0.00%    MPKI:0.00
PC:1393a     Total:12      MisBP:0   MisRate:0.00%    MPKI:0.00
PC:2e0c0     Total:13      MisBP:0   MisRate:0.00%    MPKI:0.00
PC:101fc     Total:1      MisBP:0   MisRate:0.00%    MPKI:0.00
PC:1393e     Total:20      MisBP:0   MisRate:0.00%    MPKI:0.00
PC:2e0c4     Total:14      MisBP:0   MisRate:0.00%    MPKI:0.00
PC:13940     Total:20      MisBP:0   MisRate:0.00%    MPKI:0.00
PC:2e0c6     Total:14      MisBP:0   MisRate:0.00%    MPKI:0.00
PC:13942     Total:20      MisBP:0   MisRate:0.00%    MPKI:0.00
PC:13944     Total:20      MisBP:0   MisRate:0.00%    MPKI:0.00
PC:2e0ca     Total:14      MisBP:0   MisRate:0.00%    MPKI:0.00
PC:13946     Total:20      MisBP:0   MisRate:0.00%    MPKI:0.00
PC:13932     Total:12      MisBP:0   MisRate:0.00%    MPKI:0.00
PC:1394a     Total:20      MisBP:0   MisRate:0.00%    MPKI:0.00
PC:2e0d0     Total:1      MisBP:0   MisRate:0.00%    MPKI:0.00
PC:1394e     Total:20      MisBP:0   MisRate:0.00%    MPKI:0.00
PC:2e0d4     Total:1      MisBP:0   MisRate:0.00%    MPKI:0.00
PC:13952     Total:20      MisBP:0   MisRate:0.00%    MPKI:0.00
PC:2e0d8     Total:1      MisBP:0   MisRate:0.00%    MPKI:0.00
PC:13956     Total:20      MisBP:0   MisRate:0.00%    MPKI:0.00
PC:2e0dc     Total:1      MisBP:0   MisRate:0.00%    MPKI:0.00
PC:13958     Total:20      MisBP:0   MisRate:0.00%    MPKI:0.00
PC:2e0de     Total:1      MisBP:0   MisRate:0.00%    MPKI:0.00
PC:1395c     Total:20      MisBP:0   MisRate:0.00%    MPKI:0.00
PC:2e0e2     Total:1      MisBP:0   MisRate:0.00%    MPKI:0.00
[...]
PC:2d530     Total:1      MisBP:0   MisRate:0.00%    MPKI:0.00
PC:2d5d2     Total:1      MisBP:0   MisRate:0.00%    MPKI:0.00
PC:139a0     Total:48      MisBP:0   MisRate:0.00%    MPKI:0.00
PC:2d780     Total:7      MisBP:0   MisRate:0.00%    MPKI:0.00
PC:137a0     Total:825685      MisBP:0   MisRate:0.00%    MPKI:0.00
PC:2d532     Total:52      MisBP:0   MisRate:0.00%    MPKI:0.00
PC:2d5d4     Total:1      MisBP:0   MisRate:0.00%    MPKI:0.00
PC:139a2     Total:48      MisBP:0   MisRate:0.00%    MPKI:0.00
PC:13c66     Total:13      MisBP:0   MisRate:0.00%    MPKI:0.00
PC:2d39c     Total:30      MisBP:0   MisRate:0.00%    MPKI:0.00
PC:13c68     Total:13      MisBP:0   MisRate:0.00%    MPKI:0.00
PC:326d4     Total:3      MisBP:0   MisRate:0.00%    MPKI:0.00
PC:2c8fa     Total:1      MisBP:0   MisRate:0.00%    MPKI:0.00
PC:3250c     Total:12      MisBP:0   MisRate:0.00%    MPKI:0.00
PC:10f0a     Total:2      MisBP:0   MisRate:0.00%    MPKI:0.00
PC:2c8fe     Total:1      MisBP:0   MisRate:0.00%    MPKI:0.00
PC:32510     Total:6      MisBP:0   MisRate:0.00%    MPKI:0.00
PC:10f0e     Total:2      MisBP:0   MisRate:0.00%    MPKI:0.00
PC:2cdde     Total:2      MisBP:0   MisRate:0.00%    MPKI:0.00
PC:10184     Total:12      MisBP:0   MisRate:0.00%    MPKI:0.00
PC:2cde2     Total:2      MisBP:0   MisRate:0.00%    MPKI:0.00
PC:10188     Total:3      MisBP:0   MisRate:0.00%    MPKI:0.00
PC:2cde8     Total:2      MisBP:0   MisRate:0.00%    MPKI:0.00
PC:2cdf6     Total:2      MisBP:0   MisRate:0.00%    MPKI:0.00
PC:1019c     Total:4      MisBP:0   MisRate:0.00%    MPKI:0.00
PC:14864     Total:39      MisBP:0   MisRate:0.00%    MPKI:0.00
PC:2cac2     Total:1      MisBP:0   MisRate:0.00%    MPKI:0.00
PC:10f06     Total:2      MisBP:0   MisRate:0.00%    MPKI:0.00
PC:2cac8     Total:1      MisBP:0   MisRate:0.00%    MPKI:0.00
PC:14816     Total:40      MisBP:0   MisRate:0.00%    MPKI:0.00
PC:2cadc     Total:1      MisBP:0   MisRate:0.00%    MPKI:0.00
PC:1482a     Total:40      MisBP:0   MisRate:0.00%    MPKI:0.00
PC:2cade     Total:1      MisBP:0   MisRate:0.00%    MPKI:0.00
PC:326f0     Total:3      MisBP:0   MisRate:0.00%    MPKI:0.00
PC:32724     Total:3      MisBP:0   MisRate:0.00%    MPKI:0.00
PC:2cae0     Total:1      MisBP:0   MisRate:0.00%    MPKI:0.00
PC:1482e     Total:40      MisBP:0   MisRate:0.00%    MPKI:0.00
PC:2cae2     Total:1      MisBP:0   MisRate:0.00%    MPKI:0.00
PC:326f4     Total:3      MisBP:0   MisRate:0.00%    MPKI:0.00
PC:2cae4     Total:1      MisBP:0   MisRate:0.00%    MPKI:0.00
PC:14832     Total:40      MisBP:0   MisRate:0.00%    MPKI:0.00
PC:2cae8     Total:1      MisBP:0   MisRate:0.00%    MPKI:0.00
PC:14868     Total:39      MisBP:0   MisRate:0.00%    MPKI:0.00
PC:2c8c4     Total:1      MisBP:0   MisRate:0.00%    MPKI:0.00
PC:2c8c6     Total:1      MisBP:0   MisRate:0.00%    MPKI:0.00
PC:10ed6     Total:15      MisBP:0   MisRate:0.00%    MPKI:0.00
PC:2c8ca     Total:1      MisBP:0   MisRate:0.00%    MPKI:0.00
PC:10eda     Total:15      MisBP:0   MisRate:0.00%    MPKI:0.00
PC:2c8ce     Total:1      MisBP:0   MisRate:0.00%    MPKI:0.00
PC:10ede     Total:15      MisBP:0   MisRate:0.00%    MPKI:0.00
PC:2c8d2     Total:1      MisBP:0   MisRate:0.00%    MPKI:0.00
PC:10ee2     Total:15      MisBP:0   MisRate:0.00%    MPKI:0.00
PC:2c8d4     Total:1      MisBP:0   MisRate:0.00%    MPKI:0.00
PC:2c8da     Total:1      MisBP:0   MisRate:0.00%    MPKI:0.00
PC:10eea     Total:15      MisBP:0   MisRate:0.00%    MPKI:0.00
PC:2c8de     Total:1      MisBP:0   MisRate:0.00%    MPKI:0.00
PC:10eee     Total:15      MisBP:0   MisRate:0.00%    MPKI:0.00
PC:2c8e0     Total:1      MisBP:0   MisRate:0.00%    MPKI:0.00
PC:14836     Total:40      MisBP:0   MisRate:0.00%    MPKI:0.00
PC:10ef0     Total:15      MisBP:0   MisRate:0.00%    MPKI:0.00
PC:2c8e4     Total:1      MisBP:0   MisRate:0.00%    MPKI:0.00
PC:10ef4     Total:15      MisBP:0   MisRate:0.00%    MPKI:0.00
PC:32728     Total:3      MisBP:0   MisRate:0.00%    MPKI:0.00
PC:2c8e6     Total:1      MisBP:0   MisRate:0.00%    MPKI:0.00
PC:2c8e8     Total:1      MisBP:0   MisRate:0.00%    MPKI:0.00
PC:10ef8     Total:14      MisBP:0   MisRate:0.00%    MPKI:0.00
PC:2c8ec     Total:1      MisBP:0   MisRate:0.00%    MPKI:0.00
PC:2c8ee     Total:1      MisBP:0   MisRate:0.00%    MPKI:0.00
PC:10efe     Total:2      MisBP:0   MisRate:0.00%    MPKI:0.00
PC:2c8f2     Total:1      MisBP:0   MisRate:0.00%    MPKI:0.00
PC:10f02     Total:1      MisBP:0   MisRate:0.00%    MPKI:0.00
PC:2c8f4     Total:1      MisBP:0   MisRate:0.00%    MPKI:0.00
PC:2c8f6     Total:1      MisBP:0   MisRate:0.00%    MPKI:0.00
PC:148d6     Total:40      MisBP:0   MisRate:0.00%    MPKI:0.00
PC:10ae2     Total:13      MisBP:0   MisRate:0.00%    MPKI:0.00
PC:10afa     Total:13      MisBP:0   MisRate:0.00%    MPKI:0.00
PC:10b08     Total:13      MisBP:0   MisRate:0.00%    MPKI:0.00
PC:10b1e     Total:15      MisBP:0   MisRate:0.00%    MPKI:0.00
PC:10b24     Total:15      MisBP:0   MisRate:0.00%    MPKI:0.00
PC:10b2c     Total:15      MisBP:0   MisRate:0.00%    MPKI:0.00
PC:14854     Total:39      MisBP:0   MisRate:0.00%    MPKI:0.00
PC:148cc     Total:210      MisBP:0   MisRate:0.00%    MPKI:0.00
PC:32790     Total:3      MisBP:0   MisRate:0.00%    MPKI:0.00
PC:148ce     Total:42      MisBP:0   MisRate:0.00%    MPKI:0.00
PC:148d0     Total:42      MisBP:0   MisRate:0.00%    MPKI:0.00
PC:32794     Total:3      MisBP:0   MisRate:0.00%    MPKI:0.00
PC:148d2     Total:42      MisBP:0   MisRate:0.00%    MPKI:0.00
PC:148d4     Total:40      MisBP:0   MisRate:0.00%    MPKI:0.00
PC:32798     Total:3      MisBP:0   MisRate:0.00%    MPKI:0.00
PC:10ad6     Total:13      MisBP:0   MisRate:0.00%    MPKI:0.00
PC:148da     Total:46      MisBP:0   MisRate:0.00%    MPKI:0.00
PC:148de     Total:46      MisBP:0   MisRate:0.00%    MPKI:0.00
PC:14852     Total:39      MisBP:0   MisRate:0.00%    MPKI:0.00
PC:148e2     Total:46      MisBP:0   MisRate:0.00%    MPKI:0.00
PC:148e6     Total:46      MisBP:0   MisRate:0.00%    MPKI:0.00
PC:148ea     Total:46      MisBP:0   MisRate:0.00%    MPKI:0.00
PC:148ee     Total:46      MisBP:0   MisRate:0.00%    MPKI:0.00
PC:148f0     Total:184      MisBP:0   MisRate:0.00%    MPKI:0.00
PC:327b4     Total:3      MisBP:0   MisRate:0.00%    MPKI:0.00
PC:1484e     Total:39      MisBP:0   MisRate:0.00%    MPKI:0.00
PC:1483a     Total:39      MisBP:0   MisRate:0.00%    MPKI:0.00
PC:14842     Total:39      MisBP:0   MisRate:0.00%    MPKI:0.00
PC:14846     Total:39      MisBP:0   MisRate:0.00%    MPKI:0.00
PC:1484a     Total:39      MisBP:0   MisRate:0.00%    MPKI:0.00
PC:3271c     Total:3      MisBP:0   MisRate:0.00%    MPKI:0.00
PC:2caea     Total:1      MisBP:0   MisRate:0.00%    MPKI:0.00
PC:326fc     Total:3      MisBP:0   MisRate:0.00%    MPKI:0.00
PC:2caee     Total:1      MisBP:0   MisRate:0.00%    MPKI:0.00
PC:32700     Total:3      MisBP:0   MisRate:0.00%    MPKI:0.00
PC:14860     Total:39      MisBP:0   MisRate:0.00%    MPKI:0.00
PC:2caf0     Total:1      MisBP:0   MisRate:0.00%    MPKI:0.00
PC:1483e     Total:39      MisBP:0   MisRate:0.00%    MPKI:0.00
PC:32720     Total:3      MisBP:0   MisRate:0.00%    MPKI:0.00
PC:2caf2     Total:1      MisBP:0   MisRate:0.00%    MPKI:0.00
PC:32704     Total:3      MisBP:0   MisRate:0.00%    MPKI:0.00
PC:1485c     Total:39      MisBP:0   MisRate:0.00%    MPKI:0.00
PC:2caf6     Total:1      MisBP:0   MisRate:0.00%    MPKI:0.00
PC:14844     Total:39      MisBP:0   MisRate:0.00%    MPKI:0.00
PC:32708     Total:3      MisBP:0   MisRate:0.00%    MPKI:0.00
PC:2c8d8     Total:1      MisBP:0   MisRate:0.00%    MPKI:0.00
PC:2cafa     Total:1      MisBP:0   MisRate:0.00%    MPKI:0.00
PC:3270c     Total:3      MisBP:0   MisRate:0.00%    MPKI:0.00
PC:1103c     Total:1      MisBP:0   MisRate:0.00%    MPKI:0.00
PC:14858     Total:39      MisBP:0   MisRate:0.00%    MPKI:0.00
PC:2dc96     Total:1      MisBP:0   MisRate:0.00%    MPKI:0.00
PC:32718     Total:3      MisBP:0   MisRate:0.00%    MPKI:0.00
PC:10b4e     Total:1      MisBP:0   MisRate:0.00%    MPKI:0.00
PC:10b52     Total:1      MisBP:0   MisRate:0.00%    MPKI:0.00
PC:10b54     Total:1      MisBP:0   MisRate:0.00%    MPKI:0.00
PC:10b56     Total:1      MisBP:0   MisRate:0.00%    MPKI:0.00
PC:10b58     Total:1      MisBP:0   MisRate:0.00%    MPKI:0.00
PC:10b5c     Total:1      MisBP:0   MisRate:0.00%    MPKI:0.00
PC:10b60     Total:1      MisBP:0   MisRate:0.00%    MPKI:0.00
PC:10b6c     Total:1      MisBP:0   MisRate:0.00%    MPKI:0.00
PC:10ed0     Total:8      MisBP:0   MisRate:0.00%    MPKI:0.00
PC:2ef84     Total:37      MisBP:0   MisRate:0.00%    MPKI:0.00
PC:147fe     Total:40      MisBP:0   MisRate:0.00%    MPKI:0.00
PC:2d594     Total:61      MisBP:0   MisRate:0.00%    MPKI:0.00
PC:2d598     Total:16      MisBP:0   MisRate:0.00%    MPKI:0.00
PC:2ef9a     Total:36      MisBP:0   MisRate:0.00%    MPKI:0.00
PC:326d8     Total:3      MisBP:0   MisRate:0.00%    MPKI:0.00
PC:2d59c     Total:16      MisBP:0   MisRate:0.00%    MPKI:0.00
PC:2efaa     Total:35      MisBP:0   MisRate:0.00%    MPKI:0.00
PC:14824     Total:40      MisBP:0   MisRate:0.00%    MPKI:0.00
PC:326e8     Total:3      MisBP:0   MisRate:0.00%    MPKI:0.00
PC:2d5ac     Total:45      MisBP:0   MisRate:0.00%    MPKI:0.00
PC:2d5ea     Total:3      MisBP:0   MisRate:0.00%    MPKI:0.00
PC:2d542     Total:45      MisBP:0   MisRate:0.00%    MPKI:0.00
PC:2d582     Total:67      MisBP:0   MisRate:0.00%    MPKI:0.00
PC:1486c     Total:39      MisBP:0   MisRate:0.00%    MPKI:0.00
PC:2ef4a     Total:37      MisBP:0   MisRate:0.00%    MPKI:0.00
PC:32688     Total:33      MisBP:0   MisRate:0.00%    MPKI:0.00
PC:2dce0     Total:1      MisBP:0   MisRate:0.00%    MPKI:0.00
PC:2d54c     Total:45      MisBP:0   MisRate:0.00%    MPKI:0.00
PC:2d550     Total:45      MisBP:0   MisRate:0.00%    MPKI:0.00
PC:2d552     Total:45      MisBP:0   MisRate:0.00%    MPKI:0.00
PC:2ef52     Total:37      MisBP:0   MisRate:0.00%    MPKI:0.00
PC:32690     Total:33      MisBP:0   MisRate:0.00%    MPKI:0.00
PC:2d554     Total:45      MisBP:0   MisRate:0.00%    MPKI:0.00
PC:2d556     Total:43      MisBP:0   MisRate:0.00%    MPKI:0.00
PC:2d558     Total:43      MisBP:0   MisRate:0.00%    MPKI:0.00
PC:2d572     Total:71      MisBP:0   MisRate:0.00%    MPKI:0.00
PC:2dccc     Total:3      MisBP:0   MisRate:0.00%    MPKI:0.00
PC:2d538     Total:52      MisBP:0   MisRate:0.00%    MPKI:0.00
PC:2d53c     Total:52      MisBP:0   MisRate:0.00%    MPKI:0.00
PC:2d55c     Total:80      MisBP:0   MisRate:0.00%    MPKI:0.00
PC:2d55e     Total:79      MisBP:0   MisRate:0.00%    MPKI:0.00
PC:14874     Total:39      MisBP:0   MisRate:0.00%    MPKI:0.00
PC:2d564     Total:76      MisBP:0   MisRate:0.00%    MPKI:0.00
PC:2d566     Total:76      MisBP:0   MisRate:0.00%    MPKI:0.00
PC:2d568     Total:76      MisBP:0   MisRate:0.00%    MPKI:0.00
PC:2d56a     Total:72      MisBP:0   MisRate:0.00%    MPKI:0.00
PC:2d56c     Total:72      MisBP:0   MisRate:0.00%    MPKI:0.00
PC:14870     Total:39      MisBP:0   MisRate:0.00%    MPKI:0.00
PC:2d570     Total:72      MisBP:0   MisRate:0.00%    MPKI:0.00
PC:2d548     Total:45      MisBP:0   MisRate:0.00%    MPKI:0.00
PC:2d574     Total:71      MisBP:0   MisRate:0.00%    MPKI:0.00
PC:2ef74     Total:42      MisBP:0   MisRate:0.00%    MPKI:0.00
PC:32730     Total:3      MisBP:0   MisRate:0.00%    MPKI:0.00
PC:147ee     Total:39      MisBP:0   MisRate:0.00%    MPKI:0.00
PC:2d576     Total:71      MisBP:0   MisRate:0.00%    MPKI:0.00
PC:2d578     Total:71      MisBP:0   MisRate:0.00%    MPKI:0.00
PC:2ef78     Total:42      MisBP:0   MisRate:0.00%    MPKI:0.00
PC:147f2     Total:44      MisBP:0   MisRate:0.00%    MPKI:0.00
PC:2d57a     Total:71      MisBP:0   MisRate:0.00%    MPKI:0.00
PC:2d57e     Total:70      MisBP:0   MisRate:0.00%    MPKI:0.00
PC:2d580     Total:67      MisBP:0   MisRate:0.00%    MPKI:0.00
PC:2ef80     Total:38      MisBP:0   MisRate:0.00%    MPKI:0.00
PC:2f43a     Total:34      MisBP:0   MisRate:0.00%    MPKI:0.00
PC:2d48c     Total:54      MisBP:0   MisRate:0.00%    MPKI:0.00
PC:2d490     Total:54      MisBP:0   MisRate:0.00%    MPKI:0.00
PC:2d494     Total:4      MisBP:0   MisRate:0.00%    MPKI:0.00
PC:2d496     Total:4      MisBP:0   MisRate:0.00%    MPKI:0.00
PC:2d49a     Total:4      MisBP:0   MisRate:0.00%    MPKI:0.00
PC:2d49c     Total:4      MisBP:0   MisRate:0.00%    MPKI:0.00
PC:2d4a2     Total:1      MisBP:0   MisRate:0.00%    MPKI:0.00
PC:2d422     Total:45      MisBP:0   MisRate:0.00%    MPKI:0.00
PC:13a42     Total:5344      MisBP:0   MisRate:0.00%    MPKI:0.00
PC:2f432     Total:34      MisBP:0   MisRate:0.00%    MPKI:0.00
PC:13a4a     Total:5342      MisBP:0   MisRate:0.00%    MPKI:0.00
PC:2d4a0     Total:1      MisBP:0   MisRate:0.00%    MPKI:0.00
PC:13a50     Total:5341      MisBP:0   MisRate:0.00%    MPKI:0.00
PC:3272c     Total:3      MisBP:0   MisRate:0.00%    MPKI:0.00
PC:2f440     Total:32      MisBP:0   MisRate:0.00%    MPKI:0.00
PC:13a56     Total:5144      MisBP:0   MisRate:0.00%    MPKI:0.00
PC:13a5e     Total:5141      MisBP:0   MisRate:0.00%    MPKI:0.00
PC:13a60     Total:5141      MisBP:0   MisRate:0.00%    MPKI:0.00
PC:2f450     Total:5      MisBP:0   MisRate:0.00%    MPKI:0.00
PC:13a62     Total:5141      MisBP:0   MisRate:0.00%    MPKI:0.00
PC:13a6c     Total:4971      MisBP:0   MisRate:0.00%    MPKI:0.00
PC:2c8c0     Total:1      MisBP:0   MisRate:0.00%    MPKI:0.00
PC:2d7f8     Total:15      MisBP:0   MisRate:0.00%    MPKI:0.00
PC:2d7f4     Total:15      MisBP:0   MisRate:0.00%    MPKI:0.00
PC:2d488     Total:54      MisBP:0   MisRate:0.00%    MPKI:0.00
PC:13814     Total:5097871      MisBP:0   MisRate:0.00%    MPKI:0.00
PC:13810     Total:8264500      MisBP:0   MisRate:0.00%    MPKI:0.00
PC:2d7f0     Total:15      MisBP:0   MisRate:0.00%    MPKI:0.00
PC:2d7fe     Total:13      MisBP:0   MisRate:0.00%    MPKI:0.00
PC:2d80e     Total:1      MisBP:0   MisRate:0.00%    MPKI:0.00
PC:32444     Total:5      MisBP:1   MisRate:20.00%    MPKI:0.00
PC:2d44e     Total:1      MisBP:1   MisRate:100.00%    MPKI:0.00
PC:2d618     Total:13      MisBP:1   MisRate:7.69%    MPKI:0.00
PC:2cd54     Total:43      MisBP:1   MisRate:2.33%    MPKI:0.00
PC:2c998     Total:19      MisBP:1   MisRate:5.26%    MPKI:0.00
PC:32388     Total:3      MisBP:1   MisRate:33.33%    MPKI:0.00
PC:10b30     Total:15      MisBP:1   MisRate:6.67%    MPKI:0.00
PC:32394     Total:1      MisBP:1   MisRate:100.00%    MPKI:0.00
PC:2cf4a     Total:19      MisBP:1   MisRate:5.26%    MPKI:0.00
PC:2d47e     Total:1      MisBP:1   MisRate:100.00%    MPKI:0.00
PC:2d3c6     Total:25      MisBP:1   MisRate:4.00%    MPKI:0.00
PC:324b0     Total:2      MisBP:1   MisRate:50.00%    MPKI:0.00
PC:2f43e     Total:32      MisBP:1   MisRate:3.12%    MPKI:0.00
PC:2d784     Total:7      MisBP:1   MisRate:14.29%    MPKI:0.00
PC:2d710     Total:25      MisBP:1   MisRate:4.00%    MPKI:0.00
PC:2d77c     Total:12      MisBP:1   MisRate:8.33%    MPKI:0.00
PC:2c9ba     Total:20      MisBP:1   MisRate:5.00%    MPKI:0.00
PC:2d724     Total:14      MisBP:1   MisRate:7.14%    MPKI:0.00
PC:13868     Total:21284292      MisBP:2   MisRate:0.00%    MPKI:0.00
PC:2c8ba     Total:21      MisBP:2   MisRate:9.52%    MPKI:0.00
PC:2caa2     Total:36      MisBP:2   MisRate:5.56%    MPKI:0.00
PC:13c58     Total:80      MisBP:2   MisRate:2.50%    MPKI:0.00
PC:2d8e8     Total:15      MisBP:2   MisRate:13.33%    MPKI:0.00
PC:2f44a     Total:32      MisBP:2   MisRate:6.25%    MPKI:0.00
PC:3249c     Total:7      MisBP:2   MisRate:28.57%    MPKI:0.00
PC:138e0     Total:85534      MisBP:2   MisRate:0.00%    MPKI:0.00
PC:2d4ac     Total:23      MisBP:2   MisRate:8.70%    MPKI:0.00
PC:10efc     Total:14      MisBP:2   MisRate:14.29%    MPKI:0.00
PC:13c4a     Total:41      MisBP:2   MisRate:4.88%    MPKI:0.00
PC:2d492     Total:54      MisBP:2   MisRate:3.70%    MPKI:0.00
PC:10b3e     Total:16      MisBP:2   MisRate:12.50%    MPKI:0.00
PC:2c9e8     Total:20      MisBP:2   MisRate:10.00%    MPKI:0.00
PC:2d60a     Total:51      MisBP:3   MisRate:5.88%    MPKI:0.00
PC:10158     Total:12      MisBP:3   MisRate:25.00%    MPKI:0.00
PC:2d766     Total:18      MisBP:3   MisRate:16.67%    MPKI:0.00
PC:32410     Total:3      MisBP:3   MisRate:100.00%    MPKI:0.00
PC:2d9f8     Total:14      MisBP:3   MisRate:21.43%    MPKI:0.00
PC:2da5c     Total:12      MisBP:3   MisRate:25.00%    MPKI:0.00
PC:2d4c4     Total:21      MisBP:3   MisRate:14.29%    MPKI:0.00
PC:2d9e2     Total:11      MisBP:4   MisRate:36.36%    MPKI:0.00
PC:2d758     Total:35      MisBP:4   MisRate:11.43%    MPKI:0.00
PC:13b40     Total:6356      MisBP:4   MisRate:0.06%    MPKI:0.00
PC:2ca6c     Total:10      MisBP:4   MisRate:40.00%    MPKI:0.00
PC:2d8f8     Total:17      MisBP:4   MisRate:23.53%    MPKI:0.00
PC:32694     Total:33      MisBP:4   MisRate:12.12%    MPKI:0.00
PC:2cdd4     Total:8      MisBP:5   MisRate:62.50%    MPKI:0.00
PC:2da2e     Total:17      MisBP:5   MisRate:29.41%    MPKI:0.00
PC:2d9a8     Total:15      MisBP:5   MisRate:33.33%    MPKI:0.00
PC:2d7d0     Total:21      MisBP:5   MisRate:23.81%    MPKI:0.00
PC:2d76c     Total:26      MisBP:6   MisRate:23.08%    MPKI:0.00
PC:13ab6     Total:17541      MisBP:7   MisRate:0.04%    MPKI:0.00
PC:139a4     Total:371      MisBP:7   MisRate:1.89%    MPKI:0.00
PC:32494     Total:17      MisBP:7   MisRate:41.18%    MPKI:0.00
PC:2d586     Total:67      MisBP:7   MisRate:10.45%    MPKI:0.00
PC:2d596     Total:61      MisBP:8   MisRate:13.11%    MPKI:0.00
PC:2da3e     Total:20      MisBP:8   MisRate:40.00%    MPKI:0.00
PC:137c0     Total:2832686      MisBP:9   MisRate:0.00%    MPKI:0.00
PC:2d5be     Total:45      MisBP:9   MisRate:20.00%    MPKI:0.00
PC:2d628     Total:207      MisBP:9   MisRate:4.35%    MPKI:0.00
PC:2ca44     Total:19      MisBP:10   MisRate:52.63%    MPKI:0.00
PC:1390a     Total:2241      MisBP:11   MisRate:0.49%    MPKI:0.00
PC:2d71e     Total:25      MisBP:12   MisRate:48.00%    MPKI:0.00
PC:10ae0     Total:2202      MisBP:13   MisRate:0.59%    MPKI:0.00
PC:2d7ca     Total:192      MisBP:16   MisRate:8.33%    MPKI:0.00
PC:13b6e     Total:72      MisBP:18   MisRate:25.00%    MPKI:0.00
PC:13ba2     Total:3365      MisBP:19   MisRate:0.56%    MPKI:0.00
PC:13c34     Total:2185      MisBP:21   MisRate:0.96%    MPKI:0.00
PC:2d560     Total:79      MisBP:27   MisRate:34.18%    MPKI:0.00
PC:1399e     Total:50145      MisBP:41   MisRate:0.08%    MPKI:0.00
PC:13b5a     Total:6207      MisBP:54   MisRate:0.87%    MPKI:0.00
PC:138a8     Total:21434      MisBP:118   MisRate:0.55%    MPKI:0.00
PC:1389a     Total:50148      MisBP:323   MisRate:0.64%    MPKI:0.00
PC:13ad2     Total:90017      MisBP:884   MisRate:0.98%    MPKI:0.00
PC:13b30     Total:20155      MisBP:1134   MisRate:5.63%    MPKI:0.00
PC:13854     Total:753889      MisBP:1305   MisRate:0.17%    MPKI:0.00
PC:13834     Total:815422      MisBP:1823   MisRate:0.22%    MPKI:0.01
PC:13b22     Total:13500      MisBP:1935   MisRate:14.33%    MPKI:0.01
PC:13adc     Total:69529      MisBP:4466   MisRate:6.42%    MPKI:0.01
PC:13ad8     Total:83533      MisBP:7057   MisRate:8.45%    MPKI:0.02
PC:13acc     Total:74143      MisBP:10870   MisRate:14.66%    MPKI:0.04
PC:138d2     Total:3014941      MisBP:19123   MisRate:0.63%    MPKI:0.06
PC:1382e     Total:3000226      MisBP:37067   MisRate:1.24%    MPKI:0.12
PC:13826     Total:2317510      MisBP:307564   MisRate:13.27%    MPKI:0.99
PC:1376c     Total:2761491      MisBP:413342   MisRate:14.97%    MPKI:1.33
PC:13808     Total:9115233      MisBP:504954   MisRate:5.54%    MPKI:1.63
PC:13818     Total:5088609      MisBP:685729   MisRate:13.48%    MPKI:2.21
PC:137f2     Total:7009924      MisBP:941343   MisRate:13.43%    MPKI:3.04
PC:13812     Total:8259678      MisBP:1071769   MisRate:12.98%    MPKI:3.46
Totfetch:569333655  TotInsts:310000000  TotMis : inf%   MPKI : 12.94
=============finish sim!!!!!!=============
Done running SimPoint!
