Global frequency set at 1000000000000 ticks per second
 Register [printBranch()] ExitCallback !!!!!!! 
gem5 Simulator System.  https://www.gem5.org
gem5 is copyrighted software; use the --copyright option for details.

gem5 version 22.0.0.2
gem5 compiled Sep  7 2022 00:42:18
gem5 started Sep  7 2022 03:11:39
gem5 executing on a100, pid 2755399
command line: /data/zxf/gem5/gem5-prof/build/ARM/gem5.fast --outdir=/data/zxf/checkpoint/spec2006/473.astar/prof/astar_ckp_4 /data/zxf/gem5/gem5-prof/configs/example/se.py --cpu-type O3CPU --cpu-clock 1GHz --num-cpu 1 --l1d-hwp-type=BOPPrefetcher --caches --l2cache --l1i_size 32kB --l1d_size 32kB --l2_size 1MB --l1i_assoc 8 --l1d_assoc 8 --l2_assoc 16 --cacheline_size 64 --mem-type DDR3_2133_8x8 --mem-size 16GB --restore-simpoint-checkpoint -r 4 --checkpoint-dir /data/zxf/checkpoint/spec2006/473.astar/ckpt -c astar_base.gcc41-64bit -o rivers.cfg

info: Standard input is not a terminal, disabling listeners.
Resuming from /data/zxf/checkpoint/spec2006/473.astar/ckpt/cpt.simpoint_03_inst_162890000000_weight_0.039300_interval_300000000_warmup_10000000
Resuming from SimPoint #3, start_inst:162890000000, weight:0.039300, interval:300000000, warmup:10000000
Switch at curTick count:10000
Switched CPUS @ tick 107721296443500
[(<m5.objects.ArmCPU.ArmAtomicSimpleCPU object at 0x7f52851fdbb0>, <m5.objects.ArmCPU.ArmO3CPU object at 0x7f5285215e20>)]
switching cpus



+++++++++++++++++++++++++zxf print simpoint+++++++++++++++++++++++++++
Warmed up! Dumping and resetting stats!


=============start sim!!!!!!=============
PC:2ef40     Total:467      MisBP:0   MisRate:0.00%    MPKI:0.00
PC:2ca70     Total:56      MisBP:0   MisRate:0.00%    MPKI:0.00
PC:2ef44     Total:467      MisBP:0   MisRate:0.00%    MPKI:0.00
PC:14d38     Total:35855153      MisBP:0   MisRate:0.00%    MPKI:0.00
PC:148fe     Total:2329      MisBP:0   MisRate:0.00%    MPKI:0.00
PC:2d5a8     Total:107      MisBP:0   MisRate:0.00%    MPKI:0.00
PC:2c33e     Total:30      MisBP:0   MisRate:0.00%    MPKI:0.00
PC:14d36     Total:35859398      MisBP:0   MisRate:0.00%    MPKI:0.00
PC:2d5a6     Total:108      MisBP:0   MisRate:0.00%    MPKI:0.00
PC:2c33c     Total:30      MisBP:0   MisRate:0.00%    MPKI:0.00
PC:10a74     Total:1727      MisBP:0   MisRate:0.00%    MPKI:0.00
PC:2d6ce     Total:20      MisBP:0   MisRate:0.00%    MPKI:0.00
PC:2efa4     Total:773      MisBP:0   MisRate:0.00%    MPKI:0.00
PC:2ca6c     Total:56      MisBP:0   MisRate:0.00%    MPKI:0.00
PC:2d6d4     Total:2      MisBP:0   MisRate:0.00%    MPKI:0.00
PC:148fa     Total:2376      MisBP:0   MisRate:0.00%    MPKI:0.00
PC:2d5a4     Total:108      MisBP:0   MisRate:0.00%    MPKI:0.00
PC:2c33a     Total:30      MisBP:0   MisRate:0.00%    MPKI:0.00
PC:14d32     Total:32292704      MisBP:0   MisRate:0.00%    MPKI:0.00
PC:10a70     Total:1727      MisBP:0   MisRate:0.00%    MPKI:0.00
PC:2ca68     Total:56      MisBP:0   MisRate:0.00%    MPKI:0.00
PC:2ef3c     Total:471      MisBP:0   MisRate:0.00%    MPKI:0.00
PC:14d30     Total:32293472      MisBP:0   MisRate:0.00%    MPKI:0.00
PC:148f6     Total:7128      MisBP:0   MisRate:0.00%    MPKI:0.00
PC:2d5a0     Total:108      MisBP:0   MisRate:0.00%    MPKI:0.00
PC:2c336     Total:31      MisBP:0   MisRate:0.00%    MPKI:0.00
PC:2ef9e     Total:773      MisBP:0   MisRate:0.00%    MPKI:0.00
PC:2caca     Total:1      MisBP:0   MisRate:0.00%    MPKI:0.00
PC:2d44a     Total:940      MisBP:0   MisRate:0.00%    MPKI:0.00
PC:2ca5c     Total:61      MisBP:0   MisRate:0.00%    MPKI:0.00
PC:2c8e0     Total:201      MisBP:0   MisRate:0.00%    MPKI:0.00
PC:2f432     Total:18447      MisBP:0   MisRate:0.00%    MPKI:0.00
PC:2d712     Total:70      MisBP:0   MisRate:0.00%    MPKI:0.00
PC:2c4a8     Total:22      MisBP:0   MisRate:0.00%    MPKI:0.00
PC:14886     Total:2392      MisBP:0   MisRate:0.00%    MPKI:0.00
PC:2d530     Total:1539      MisBP:0   MisRate:0.00%    MPKI:0.00
PC:109fe     Total:7453      MisBP:0   MisRate:0.00%    MPKI:0.00
PC:2c3ee     Total:6      MisBP:0   MisRate:0.00%    MPKI:0.00
PC:2ef2e     Total:512      MisBP:0   MisRate:0.00%    MPKI:0.00
PC:2ca5a     Total:61      MisBP:0   MisRate:0.00%    MPKI:0.00
PC:2c8de     Total:201      MisBP:0   MisRate:0.00%    MPKI:0.00
PC:14d88     Total:7052456      MisBP:0   MisRate:0.00%    MPKI:0.00
PC:14d2c     Total:4619261      MisBP:0   MisRate:0.00%    MPKI:0.00
PC:2ca7a     Total:477      MisBP:0   MisRate:0.00%    MPKI:0.00
PC:14d42     Total:32240078      MisBP:0   MisRate:0.00%    MPKI:0.00
PC:14d3e     Total:32258554      MisBP:0   MisRate:0.00%    MPKI:0.00
PC:10a7c     Total:1      MisBP:0   MisRate:0.00%    MPKI:0.00
PC:2d6d6     Total:2      MisBP:0   MisRate:0.00%    MPKI:0.00
PC:2ca74     Total:477      MisBP:0   MisRate:0.00%    MPKI:0.00
PC:2ef48     Total:467      MisBP:0   MisRate:0.00%    MPKI:0.00
PC:14d3c     Total:35841930      MisBP:0   MisRate:0.00%    MPKI:0.00
PC:14902     Total:2399      MisBP:0   MisRate:0.00%    MPKI:0.00
PC:2d5ac     Total:107      MisBP:0   MisRate:0.00%    MPKI:0.00
PC:2c342     Total:145      MisBP:0   MisRate:0.00%    MPKI:0.00
PC:10a7a     Total:1      MisBP:0   MisRate:0.00%    MPKI:0.00
PC:2ca4c     Total:75      MisBP:0   MisRate:0.00%    MPKI:0.00
PC:14d8c     Total:7050776      MisBP:0   MisRate:0.00%    MPKI:0.00
PC:14912     Total:2416      MisBP:0   MisRate:0.00%    MPKI:0.00
PC:2ca84     Total:475      MisBP:0   MisRate:0.00%    MPKI:0.00
PC:2ef58     Total:463      MisBP:0   MisRate:0.00%    MPKI:0.00
PC:14d16     Total:4677085      MisBP:0   MisRate:0.00%    MPKI:0.00
PC:2c950     Total:119      MisBP:0   MisRate:0.00%    MPKI:0.00
PC:14c18     Total:210      MisBP:0   MisRate:0.00%    MPKI:0.00
PC:2ceca     Total:12      MisBP:0   MisRate:0.00%    MPKI:0.00
PC:2ca3c     Total:2305      MisBP:0   MisRate:0.00%    MPKI:0.00
PC:2cdde     Total:377      MisBP:0   MisRate:0.00%    MPKI:0.00
PC:147fc     Total:2677      MisBP:0   MisRate:0.00%    MPKI:0.00
PC:2caae     Total:2      MisBP:0   MisRate:0.00%    MPKI:0.00
PC:2ef82     Total:1133      MisBP:0   MisRate:0.00%    MPKI:0.00
PC:2cac8     Total:1      MisBP:0   MisRate:0.00%    MPKI:0.00
PC:2ef20     Total:2695      MisBP:0   MisRate:0.00%    MPKI:0.00
PC:14d14     Total:4678361      MisBP:0   MisRate:0.00%    MPKI:0.00
PC:2f49a     Total:25700      MisBP:0   MisRate:0.00%    MPKI:0.00
PC:1490e     Total:2416      MisBP:0   MisRate:0.00%    MPKI:0.00
PC:2ca80     Total:476      MisBP:0   MisRate:0.00%    MPKI:0.00
PC:2ef54     Total:463      MisBP:0   MisRate:0.00%    MPKI:0.00
PC:14d48     Total:276      MisBP:0   MisRate:0.00%    MPKI:0.00
PC:14d12     Total:4678653      MisBP:0   MisRate:0.00%    MPKI:0.00
PC:14c14     Total:210      MisBP:0   MisRate:0.00%    MPKI:0.00
PC:2cec6     Total:12      MisBP:0   MisRate:0.00%    MPKI:0.00
PC:2ca48     Total:75      MisBP:0   MisRate:0.00%    MPKI:0.00
PC:2ef1c     Total:539      MisBP:0   MisRate:0.00%    MPKI:0.00
PC:2d6b8     Total:21      MisBP:0   MisRate:0.00%    MPKI:0.00
PC:2d59a     Total:108      MisBP:0   MisRate:0.00%    MPKI:0.00
PC:2c330     Total:32      MisBP:0   MisRate:0.00%    MPKI:0.00
PC:10a68     Total:1956      MisBP:0   MisRate:0.00%    MPKI:0.00
PC:2d6c2     Total:20      MisBP:0   MisRate:0.00%    MPKI:0.00
PC:2ef98     Total:776      MisBP:0   MisRate:0.00%    MPKI:0.00
PC:14812     Total:2531      MisBP:0   MisRate:0.00%    MPKI:0.00
PC:2cac4     Total:1      MisBP:0   MisRate:0.00%    MPKI:0.00
PC:14d26     Total:4620515      MisBP:0   MisRate:0.00%    MPKI:0.00
PC:2ca58     Total:61      MisBP:0   MisRate:0.00%    MPKI:0.00
PC:2ef2c     Total:512      MisBP:0   MisRate:0.00%    MPKI:0.00
PC:14d20     Total:4669789      MisBP:0   MisRate:0.00%    MPKI:0.00
PC:2d590     Total:109      MisBP:0   MisRate:0.00%    MPKI:0.00
PC:10a5e     Total:1956      MisBP:0   MisRate:0.00%    MPKI:0.00
PC:2ef30     Total:512      MisBP:0   MisRate:0.00%    MPKI:0.00
PC:2ca54     Total:63      MisBP:0   MisRate:0.00%    MPKI:0.00
PC:2ef28     Total:514      MisBP:0   MisRate:0.00%    MPKI:0.00
PC:14d1c     Total:4670927      MisBP:0   MisRate:0.00%    MPKI:0.00
PC:2f4a2     Total:12768      MisBP:0   MisRate:0.00%    MPKI:0.00
PC:14faa     Total:13      MisBP:0   MisRate:0.00%    MPKI:0.00
PC:2ef8a     Total:1130      MisBP:0   MisRate:0.00%    MPKI:0.00
PC:2cab6     Total:2      MisBP:0   MisRate:0.00%    MPKI:0.00
PC:2ca50     Total:63      MisBP:0   MisRate:0.00%    MPKI:0.00
PC:14d18     Total:4671206      MisBP:0   MisRate:0.00%    MPKI:0.00
PC:2f49e     Total:12769      MisBP:0   MisRate:0.00%    MPKI:0.00
PC:2cdf8     Total:366      MisBP:0   MisRate:0.00%    MPKI:0.00
PC:14816     Total:2531      MisBP:0   MisRate:0.00%    MPKI:0.00
PC:14da6     Total:1109      MisBP:0   MisRate:0.00%    MPKI:0.00
PC:10a26     Total:1240      MisBP:0   MisRate:0.00%    MPKI:0.00
PC:2c416     Total:3      MisBP:0   MisRate:0.00%    MPKI:0.00
PC:2d680     Total:21      MisBP:0   MisRate:0.00%    MPKI:0.00
PC:14860     Total:2424      MisBP:0   MisRate:0.00%    MPKI:0.00
PC:14dc2     Total:1000      MisBP:0   MisRate:0.00%    MPKI:0.00
PC:14db8     Total:1332      MisBP:0   MisRate:0.00%    MPKI:0.00
PC:14852     Total:2448      MisBP:0   MisRate:0.00%    MPKI:0.00
PC:14dae     Total:1094      MisBP:0   MisRate:0.00%    MPKI:0.00
PC:1484a     Total:2448      MisBP:0   MisRate:0.00%    MPKI:0.00
PC:14846     Total:2451      MisBP:0   MisRate:0.00%    MPKI:0.00
PC:14da8     Total:1109      MisBP:0   MisRate:0.00%    MPKI:0.00
PC:14844     Total:2453      MisBP:0   MisRate:0.00%    MPKI:0.00
PC:2caf6     Total:1      MisBP:0   MisRate:0.00%    MPKI:0.00
PC:2d558     Total:1524      MisBP:0   MisRate:0.00%    MPKI:0.00
PC:14842     Total:2453      MisBP:0   MisRate:0.00%    MPKI:0.00
PC:14da4     Total:1109      MisBP:0   MisRate:0.00%    MPKI:0.00
PC:1483e     Total:2453      MisBP:0   MisRate:0.00%    MPKI:0.00
PC:2caf0     Total:1      MisBP:0   MisRate:0.00%    MPKI:0.00
PC:14da0     Total:10281      MisBP:0   MisRate:0.00%    MPKI:0.00
PC:1483a     Total:2458      MisBP:0   MisRate:0.00%    MPKI:0.00
PC:14836     Total:2459      MisBP:0   MisRate:0.00%    MPKI:0.00
PC:2cae8     Total:1      MisBP:0   MisRate:0.00%    MPKI:0.00
PC:14d98     Total:138301      MisBP:0   MisRate:0.00%    MPKI:0.00
PC:14832     Total:2459      MisBP:0   MisRate:0.00%    MPKI:0.00
PC:2cae4     Total:1      MisBP:0   MisRate:0.00%    MPKI:0.00
PC:2d526     Total:1553      MisBP:0   MisRate:0.00%    MPKI:0.00
PC:2c3d2     Total:33      MisBP:0   MisRate:0.00%    MPKI:0.00
PC:2ef66     Total:458      MisBP:0   MisRate:0.00%    MPKI:0.00
PC:2cace     Total:1      MisBP:0   MisRate:0.00%    MPKI:0.00
PC:2cdfc     Total:366      MisBP:0   MisRate:0.00%    MPKI:0.00
PC:1481a     Total:2531      MisBP:0   MisRate:0.00%    MPKI:0.00
PC:2efa0     Total:773      MisBP:0   MisRate:0.00%    MPKI:0.00
PC:147fe     Total:2567      MisBP:0   MisRate:0.00%    MPKI:0.00
PC:2ef84     Total:1132      MisBP:0   MisRate:0.00%    MPKI:0.00
PC:147ee     Total:2194      MisBP:0   MisRate:0.00%    MPKI:0.00
PC:2ef74     Total:1144      MisBP:0   MisRate:0.00%    MPKI:0.00
PC:2d66c     Total:361      MisBP:0   MisRate:0.00%    MPKI:0.00
PC:10a12     Total:1018      MisBP:0   MisRate:0.00%    MPKI:0.00
PC:2c402     Total:3      MisBP:0   MisRate:0.00%    MPKI:0.00
PC:147e0     Total:2212      MisBP:0   MisRate:0.00%    MPKI:0.00
PC:2ca92     Total:475      MisBP:0   MisRate:0.00%    MPKI:0.00
PC:2d63c     Total:90      MisBP:0   MisRate:0.00%    MPKI:0.00
PC:2c952     Total:119      MisBP:0   MisRate:0.00%    MPKI:0.00
PC:2f4a4     Total:12768      MisBP:0   MisRate:0.00%    MPKI:0.00
PC:14d1e     Total:4670740      MisBP:0   MisRate:0.00%    MPKI:0.00
PC:14c1a     Total:210      MisBP:0   MisRate:0.00%    MPKI:0.00
PC:2cecc     Total:12      MisBP:0   MisRate:0.00%    MPKI:0.00
PC:14916     Total:7175      MisBP:0   MisRate:0.00%    MPKI:0.00
PC:2ca88     Total:475      MisBP:0   MisRate:0.00%    MPKI:0.00
PC:2ef5c     Total:463      MisBP:0   MisRate:0.00%    MPKI:0.00
PC:14d50     Total:235      MisBP:0   MisRate:0.00%    MPKI:0.00
PC:148f4     Total:7137      MisBP:0   MisRate:0.00%    MPKI:0.00
PC:14868     Total:2422      MisBP:0   MisRate:0.00%    MPKI:0.00
PC:14864     Total:2423      MisBP:0   MisRate:0.00%    MPKI:0.00
PC:2ce6e     Total:33      MisBP:0   MisRate:0.00%    MPKI:0.00
PC:2ca06     Total:1      MisBP:0   MisRate:0.00%    MPKI:0.00
PC:2c8ec     Total:201      MisBP:0   MisRate:0.00%    MPKI:0.00
PC:2d71c     Total:70      MisBP:0   MisRate:0.00%    MPKI:0.00
PC:2c4b2     Total:21      MisBP:0   MisRate:0.00%    MPKI:0.00
PC:14890     Total:2410      MisBP:0   MisRate:0.00%    MPKI:0.00
PC:10a08     Total:1434      MisBP:0   MisRate:0.00%    MPKI:0.00
PC:2c3f8     Total:6      MisBP:0   MisRate:0.00%    MPKI:0.00
PC:2d662     Total:2      MisBP:0   MisRate:0.00%    MPKI:0.00
PC:2ef38     Total:487      MisBP:0   MisRate:0.00%    MPKI:0.00
PC:2ca64     Total:61      MisBP:0   MisRate:0.00%    MPKI:0.00
PC:14df2     Total:132230      MisBP:0   MisRate:0.00%    MPKI:0.00
PC:2d718     Total:70      MisBP:0   MisRate:0.00%    MPKI:0.00
PC:2c4ae     Total:21      MisBP:0   MisRate:0.00%    MPKI:0.00
PC:14894     Total:2407      MisBP:0   MisRate:0.00%    MPKI:0.00
PC:2e0d8     Total:1      MisBP:0   MisRate:0.00%    MPKI:0.00
PC:1488c     Total:2410      MisBP:0   MisRate:0.00%    MPKI:0.00
PC:2c8e4     Total:201      MisBP:0   MisRate:0.00%    MPKI:0.00
PC:14dec     Total:66524      MisBP:0   MisRate:0.00%    MPKI:0.00
PC:2d714     Total:70      MisBP:0   MisRate:0.00%    MPKI:0.00
PC:14888     Total:12055      MisBP:0   MisRate:0.00%    MPKI:0.00
PC:2d532     Total:1642      MisBP:0   MisRate:0.00%    MPKI:0.00
PC:2c3de     Total:33      MisBP:0   MisRate:0.00%    MPKI:0.00
PC:2d648     Total:2      MisBP:0   MisRate:0.00%    MPKI:0.00
PC:10a00     Total:1435      MisBP:0   MisRate:0.00%    MPKI:0.00
PC:2c3f0     Total:6      MisBP:0   MisRate:0.00%    MPKI:0.00
PC:2d65a     Total:2      MisBP:0   MisRate:0.00%    MPKI:0.00
PC:2ef90     Total:1128      MisBP:0   MisRate:0.00%    MPKI:0.00
PC:109f4     Total:7453      MisBP:0   MisRate:0.00%    MPKI:0.00
PC:2c3e4     Total:33      MisBP:0   MisRate:0.00%    MPKI:0.00
PC:14d94     Total:7046432      MisBP:0   MisRate:0.00%    MPKI:0.00
PC:2c8e8     Total:201      MisBP:0   MisRate:0.00%    MPKI:0.00
PC:2f43a     Total:18447      MisBP:0   MisRate:0.00%    MPKI:0.00
PC:2d5b0     Total:107      MisBP:0   MisRate:0.00%    MPKI:0.00
PC:10a7e     Total:1      MisBP:0   MisRate:0.00%    MPKI:0.00
PC:2c8e6     Total:201      MisBP:0   MisRate:0.00%    MPKI:0.00
PC:14d90     Total:7050907      MisBP:0   MisRate:0.00%    MPKI:0.00
PC:14882     Total:2393      MisBP:0   MisRate:0.00%    MPKI:0.00
PC:2c8da     Total:201      MisBP:0   MisRate:0.00%    MPKI:0.00
PC:2cabc     Total:2      MisBP:0   MisRate:0.00%    MPKI:0.00
PC:1480a     Total:2534      MisBP:0   MisRate:0.00%    MPKI:0.00
PC:2cdf0     Total:369      MisBP:0   MisRate:0.00%    MPKI:0.00
PC:14d84     Total:3      MisBP:0   MisRate:0.00%    MPKI:0.00
PC:2d59e     Total:108      MisBP:0   MisRate:0.00%    MPKI:0.00
PC:2c334     Total:31      MisBP:0   MisRate:0.00%    MPKI:0.00
PC:10a6c     Total:1727      MisBP:0   MisRate:0.00%    MPKI:0.00
PC:2d728     Total:203      MisBP:0   MisRate:0.00%    MPKI:0.00
PC:2c4be     Total:20      MisBP:0   MisRate:0.00%    MPKI:0.00
PC:2ce7e     Total:33      MisBP:0   MisRate:0.00%    MPKI:0.00
PC:2e0e8     Total:1      MisBP:0   MisRate:0.00%    MPKI:0.00
PC:1489c     Total:2407      MisBP:0   MisRate:0.00%    MPKI:0.00
PC:2d720     Total:68      MisBP:0   MisRate:0.00%    MPKI:0.00
PC:2c4b6     Total:21      MisBP:0   MisRate:0.00%    MPKI:0.00
PC:2ce76     Total:33      MisBP:0   MisRate:0.00%    MPKI:0.00
PC:10a18     Total:1244      MisBP:0   MisRate:0.00%    MPKI:0.00
PC:14f5a     Total:1166      MisBP:0   MisRate:0.00%    MPKI:0.00
PC:2ca08     Total:1      MisBP:0   MisRate:0.00%    MPKI:0.00
PC:14cd0     Total:152925      MisBP:0   MisRate:0.00%    MPKI:0.00
PC:2d540     Total:1576      MisBP:0   MisRate:0.00%    MPKI:0.00
PC:2c3ec     Total:33      MisBP:0   MisRate:0.00%    MPKI:0.00
PC:109fc     Total:7453      MisBP:0   MisRate:0.00%    MPKI:0.00
PC:2d656     Total:2      MisBP:0   MisRate:0.00%    MPKI:0.00
PC:10a0e     Total:1018      MisBP:0   MisRate:0.00%    MPKI:0.00
PC:2d668     Total:2      MisBP:0   MisRate:0.00%    MPKI:0.00
PC:14f5e     Total:1166      MisBP:0   MisRate:0.00%    MPKI:0.00
PC:2ef3e     Total:471      MisBP:0   MisRate:0.00%    MPKI:0.00
PC:2ca10     Total:1      MisBP:0   MisRate:0.00%    MPKI:0.00
PC:2ca12     Total:1      MisBP:0   MisRate:0.00%    MPKI:0.00
PC:109f8     Total:7453      MisBP:0   MisRate:0.00%    MPKI:0.00
PC:2c408     Total:3      MisBP:0   MisRate:0.00%    MPKI:0.00
PC:2ca14     Total:1      MisBP:0   MisRate:0.00%    MPKI:0.00
PC:2d54c     Total:1570      MisBP:0   MisRate:0.00%    MPKI:0.00
PC:14f6a     Total:1379      MisBP:0   MisRate:0.00%    MPKI:0.00
PC:2ef4a     Total:467      MisBP:0   MisRate:0.00%    MPKI:0.00
PC:2ca16     Total:1      MisBP:0   MisRate:0.00%    MPKI:0.00
PC:14ddc     Total:79973      MisBP:0   MisRate:0.00%    MPKI:0.00
PC:2ca18     Total:1      MisBP:0   MisRate:0.00%    MPKI:0.00
PC:14d6a     Total:123      MisBP:0   MisRate:0.00%    MPKI:0.00
PC:2d542     Total:1570      MisBP:0   MisRate:0.00%    MPKI:0.00
PC:14f60     Total:1166      MisBP:0   MisRate:0.00%    MPKI:0.00
PC:2ef42     Total:467      MisBP:0   MisRate:0.00%    MPKI:0.00
PC:14f62     Total:1166      MisBP:0   MisRate:0.00%    MPKI:0.00
PC:2c9fc     Total:2      MisBP:0   MisRate:0.00%    MPKI:0.00
PC:2d68a     Total:21      MisBP:0   MisRate:0.00%    MPKI:0.00
PC:10a1c     Total:1244      MisBP:0   MisRate:0.00%    MPKI:0.00
PC:2cdcc     Total:962      MisBP:0   MisRate:0.00%    MPKI:0.00
PC:2ca2e     Total:1      MisBP:0   MisRate:0.00%    MPKI:0.00
PC:14cf6     Total:6953240      MisBP:0   MisRate:0.00%    MPKI:0.00
PC:2ca32     Total:1      MisBP:0   MisRate:0.00%    MPKI:0.00
PC:2cdd4     Total:593      MisBP:0   MisRate:0.00%    MPKI:0.00
PC:147f2     Total:2554      MisBP:0   MisRate:0.00%    MPKI:0.00
PC:2ef78     Total:1143      MisBP:0   MisRate:0.00%    MPKI:0.00
PC:2ca34     Total:2307      MisBP:0   MisRate:0.00%    MPKI:0.00
PC:14cfc     Total:359      MisBP:0   MisRate:0.00%    MPKI:0.00
PC:2cdd2     Total:593      MisBP:0   MisRate:0.00%    MPKI:0.00
PC:147f0     Total:2554      MisBP:0   MisRate:0.00%    MPKI:0.00
PC:2d546     Total:1570      MisBP:0   MisRate:0.00%    MPKI:0.00
PC:2ca00     Total:1      MisBP:0   MisRate:0.00%    MPKI:0.00
PC:14cc8     Total:152773      MisBP:0   MisRate:0.00%    MPKI:0.00
PC:2d538     Total:1641      MisBP:0   MisRate:0.00%    MPKI:0.00
PC:10a06     Total:1434      MisBP:0   MisRate:0.00%    MPKI:0.00
PC:2c3f6     Total:6      MisBP:0   MisRate:0.00%    MPKI:0.00
PC:2d660     Total:2      MisBP:0   MisRate:0.00%    MPKI:0.00
PC:14f56     Total:7413      MisBP:0   MisRate:0.00%    MPKI:0.00
PC:2ef36     Total:487      MisBP:0   MisRate:0.00%    MPKI:0.00
PC:2ca04     Total:1      MisBP:0   MisRate:0.00%    MPKI:0.00
PC:14ccc     Total:152772      MisBP:0   MisRate:0.00%    MPKI:0.00
PC:2d53c     Total:1641      MisBP:0   MisRate:0.00%    MPKI:0.00
PC:2c3e8     Total:33      MisBP:0   MisRate:0.00%    MPKI:0.00
PC:14dca     Total:1000      MisBP:0   MisRate:0.00%    MPKI:0.00
PC:2d69c     Total:21      MisBP:0   MisRate:0.00%    MPKI:0.00
PC:14fa4     Total:7      MisBP:0   MisRate:0.00%    MPKI:0.00
PC:12cfc     Total:2506      MisBP:0   MisRate:0.00%    MPKI:0.00
PC:2d482     Total:11      MisBP:0   MisRate:0.00%    MPKI:0.00
PC:14fa6     Total:5      MisBP:0   MisRate:0.00%    MPKI:0.00
PC:2d6b0     Total:21      MisBP:0   MisRate:0.00%    MPKI:0.00
PC:2cafa     Total:1      MisBP:0   MisRate:0.00%    MPKI:0.00
PC:14dc4     Total:1000      MisBP:0   MisRate:0.00%    MPKI:0.00
PC:2d3a6     Total:453      MisBP:0   MisRate:0.00%    MPKI:0.00
PC:14dc6     Total:1000      MisBP:0   MisRate:0.00%    MPKI:0.00
PC:2d3a8     Total:453      MisBP:0   MisRate:0.00%    MPKI:0.00
PC:10a5c     Total:1956      MisBP:0   MisRate:0.00%    MPKI:0.00
PC:12d04     Total:16630041      MisBP:0   MisRate:0.00%    MPKI:0.00
PC:10a42     Total:1088      MisBP:0   MisRate:0.00%    MPKI:0.00
PC:2d3ac     Total:453      MisBP:0   MisRate:0.00%    MPKI:0.00
PC:12d08     Total:8314635      MisBP:0   MisRate:0.00%    MPKI:0.00
PC:2d594     Total:109      MisBP:0   MisRate:0.00%    MPKI:0.00
PC:10a62     Total:1956      MisBP:0   MisRate:0.00%    MPKI:0.00
PC:12d0a     Total:8314531      MisBP:0   MisRate:0.00%    MPKI:0.00
PC:2d490     Total:1190      MisBP:0   MisRate:0.00%    MPKI:0.00
PC:14dd0     Total:998      MisBP:0   MisRate:0.00%    MPKI:0.00
PC:2d3b2     Total:453      MisBP:0   MisRate:0.00%    MPKI:0.00
PC:2d596     Total:109      MisBP:0   MisRate:0.00%    MPKI:0.00
PC:2c32c     Total:196      MisBP:0   MisRate:0.00%    MPKI:0.00
PC:10a64     Total:1956      MisBP:0   MisRate:0.00%    MPKI:0.00
PC:2d6be     Total:21      MisBP:0   MisRate:0.00%    MPKI:0.00
PC:14db6     Total:1342      MisBP:0   MisRate:0.00%    MPKI:0.00
PC:14f64     Total:1166      MisBP:0   MisRate:0.00%    MPKI:0.00
PC:2d548     Total:1570      MisBP:0   MisRate:0.00%    MPKI:0.00
PC:14f66     Total:1166      MisBP:0   MisRate:0.00%    MPKI:0.00
PC:14daa     Total:1094      MisBP:0   MisRate:0.00%    MPKI:0.00
PC:14db0     Total:1094      MisBP:0   MisRate:0.00%    MPKI:0.00
PC:14dbe     Total:1256      MisBP:0   MisRate:0.00%    MPKI:0.00
PC:2c41a     Total:3      MisBP:0   MisRate:0.00%    MPKI:0.00
PC:10a2a     Total:1240      MisBP:0   MisRate:0.00%    MPKI:0.00
PC:2d684     Total:21      MisBP:0   MisRate:0.00%    MPKI:0.00
PC:12ce4     Total:1253      MisBP:0   MisRate:0.00%    MPKI:0.00
PC:14eb6     Total:12523      MisBP:0   MisRate:0.00%    MPKI:0.00
PC:14db2     Total:1081      MisBP:0   MisRate:0.00%    MPKI:0.00
PC:2d394     Total:454      MisBP:0   MisRate:0.00%    MPKI:0.00
PC:10a30     Total:1199      MisBP:0   MisRate:0.00%    MPKI:0.00
PC:2d398     Total:4530      MisBP:0   MisRate:0.00%    MPKI:0.00
PC:14ec2     Total:11246      MisBP:0   MisRate:0.00%    MPKI:0.00
PC:2c42a     Total:3      MisBP:0   MisRate:0.00%    MPKI:0.00
PC:10a3a     Total:1198      MisBP:0   MisRate:0.00%    MPKI:0.00
PC:2d694     Total:21      MisBP:0   MisRate:0.00%    MPKI:0.00
PC:2d6a6     Total:21      MisBP:0   MisRate:0.00%    MPKI:0.00
PC:12cf4     Total:1253      MisBP:0   MisRate:0.00%    MPKI:0.00
PC:2d47a     Total:866      MisBP:0   MisRate:0.00%    MPKI:0.00
PC:2d39c     Total:453      MisBP:0   MisRate:0.00%    MPKI:0.00
PC:14dbc     Total:1256      MisBP:0   MisRate:0.00%    MPKI:0.00
PC:2d39e     Total:453      MisBP:0   MisRate:0.00%    MPKI:0.00
PC:2c432     Total:24      MisBP:0   MisRate:0.00%    MPKI:0.00
PC:2ef8c     Total:1130      MisBP:0   MisRate:0.00%    MPKI:0.00
PC:2ef5e     Total:463      MisBP:0   MisRate:0.00%    MPKI:0.00
PC:14d52     Total:235      MisBP:0   MisRate:0.00%    MPKI:0.00
PC:2ca86     Total:475      MisBP:0   MisRate:0.00%    MPKI:0.00
PC:2ef5a     Total:463      MisBP:0   MisRate:0.00%    MPKI:0.00
PC:14d4e     Total:235      MisBP:0   MisRate:0.00%    MPKI:0.00
PC:14d4a     Total:276      MisBP:0   MisRate:0.00%    MPKI:0.00
PC:1490a     Total:7248      MisBP:0   MisRate:0.00%    MPKI:0.00
PC:2ca7c     Total:477      MisBP:0   MisRate:0.00%    MPKI:0.00
PC:2ef50     Total:465      MisBP:0   MisRate:0.00%    MPKI:0.00
PC:14d0e     Total:4758055      MisBP:0   MisRate:0.00%    MPKI:0.00
PC:2cde8     Total:369      MisBP:0   MisRate:0.00%    MPKI:0.00
PC:14806     Total:2534      MisBP:0   MisRate:0.00%    MPKI:0.00
PC:2cab8     Total:2      MisBP:0   MisRate:0.00%    MPKI:0.00
PC:2ca8a     Total:475      MisBP:0   MisRate:0.00%    MPKI:0.00
PC:14c10     Total:211      MisBP:0   MisRate:0.00%    MPKI:0.00
PC:14d46     Total:277      MisBP:0   MisRate:0.00%    MPKI:0.00
PC:14e0a     Total:66315      MisBP:0   MisRate:0.00%    MPKI:0.00
PC:14906     Total:2399      MisBP:0   MisRate:0.00%    MPKI:0.00
PC:2ca42     Total:2046      MisBP:0   MisRate:0.00%    MPKI:0.00
PC:14802     Total:2534      MisBP:0   MisRate:0.00%    MPKI:0.00
PC:2ef88     Total:1131      MisBP:0   MisRate:0.00%    MPKI:0.00
PC:2ca96     Total:475      MisBP:0   MisRate:0.00%    MPKI:0.00
PC:147e4     Total:2198      MisBP:0   MisRate:0.00%    MPKI:0.00
PC:2ef6a     Total:1147      MisBP:0   MisRate:0.00%    MPKI:0.00
PC:14d5e     Total:124      MisBP:0   MisRate:0.00%    MPKI:0.00
PC:2ca9a     Total:475      MisBP:0   MisRate:0.00%    MPKI:0.00
PC:14d58     Total:125      MisBP:0   MisRate:0.00%    MPKI:0.00
PC:1480e     Total:2534      MisBP:0   MisRate:0.00%    MPKI:0.00
PC:2ef94     Total:779      MisBP:0   MisRate:0.00%    MPKI:0.00
PC:2cac0     Total:1      MisBP:0   MisRate:0.00%    MPKI:0.00
PC:2c94a     Total:119      MisBP:0   MisRate:0.00%    MPKI:0.00
PC:14c12     Total:211      MisBP:0   MisRate:0.00%    MPKI:0.00
PC:2cec4     Total:12      MisBP:0   MisRate:0.00%    MPKI:0.00
PC:14d5c     Total:125      MisBP:0   MisRate:0.00%    MPKI:0.00
PC:10a0c     Total:1018      MisBP:0   MisRate:0.00%    MPKI:0.00
PC:2c3fc     Total:6      MisBP:0   MisRate:0.00%    MPKI:0.00
PC:14f5c     Total:1166      MisBP:0   MisRate:0.00%    MPKI:0.00
PC:14d5a     Total:125      MisBP:0   MisRate:0.00%    MPKI:0.00
PC:2ca90     Total:475      MisBP:0   MisRate:0.00%    MPKI:0.00
PC:2ef64     Total:463      MisBP:0   MisRate:0.00%    MPKI:0.00
PC:147e8     Total:2198      MisBP:0   MisRate:0.00%    MPKI:0.00
PC:2ca8e     Total:475      MisBP:0   MisRate:0.00%    MPKI:0.00
PC:147dc     Total:20135      MisBP:0   MisRate:0.00%    MPKI:0.00
PC:2ef62     Total:463      MisBP:0   MisRate:0.00%    MPKI:0.00
PC:14d56     Total:125      MisBP:0   MisRate:0.00%    MPKI:0.00
PC:2ca8c     Total:475      MisBP:0   MisRate:0.00%    MPKI:0.00
PC:2ef60     Total:463      MisBP:0   MisRate:0.00%    MPKI:0.00
PC:14d54     Total:235      MisBP:0   MisRate:0.00%    MPKI:0.00
PC:2d536     Total:1642      MisBP:0   MisRate:0.00%    MPKI:0.00
PC:10a04     Total:1435      MisBP:0   MisRate:0.00%    MPKI:0.00
PC:2c3f4     Total:6      MisBP:0   MisRate:0.00%    MPKI:0.00
PC:2d65e     Total:2      MisBP:0   MisRate:0.00%    MPKI:0.00
PC:14f54     Total:1059      MisBP:0   MisRate:0.00%    MPKI:0.00
PC:2c94e     Total:119      MisBP:0   MisRate:0.00%    MPKI:0.00
PC:14d7a     Total:5      MisBP:0   MisRate:0.00%    MPKI:0.00
PC:14d7c     Total:5      MisBP:0   MisRate:0.00%    MPKI:0.00
PC:14d7e     Total:5      MisBP:0   MisRate:0.00%    MPKI:0.00
PC:14d80     Total:3      MisBP:0   MisRate:0.00%    MPKI:0.00
PC:14d86     Total:3      MisBP:0   MisRate:0.00%    MPKI:0.00
PC:2ca1c     Total:1      MisBP:0   MisRate:0.00%    MPKI:0.00
PC:2d554     Total:1568      MisBP:0   MisRate:0.00%    MPKI:0.00
PC:10a22     Total:1244      MisBP:0   MisRate:0.00%    MPKI:0.00
PC:2d67c     Total:22      MisBP:0   MisRate:0.00%    MPKI:0.00
PC:2c412     Total:3      MisBP:0   MisRate:0.00%    MPKI:0.00
PC:14f72     Total:16527      MisBP:0   MisRate:0.00%    MPKI:0.00
PC:2ef52     Total:465      MisBP:0   MisRate:0.00%    MPKI:0.00
PC:2cdbe     Total:1148      MisBP:0   MisRate:0.00%    MPKI:0.00
PC:2cab2     Total:2      MisBP:0   MisRate:0.00%    MPKI:0.00
PC:2f4a0     Total:12768      MisBP:0   MisRate:0.00%    MPKI:0.00
PC:14c16     Total:210      MisBP:0   MisRate:0.00%    MPKI:0.00
PC:2cec8     Total:12      MisBP:0   MisRate:0.00%    MPKI:0.00
PC:2ca20     Total:1      MisBP:0   MisRate:0.00%    MPKI:0.00
PC:14cec     Total:6962318      MisBP:0   MisRate:0.00%    MPKI:0.00
PC:2d670     Total:55      MisBP:0   MisRate:0.00%    MPKI:0.00
PC:2c406     Total:3      MisBP:0   MisRate:0.00%    MPKI:0.00
PC:2ca28     Total:1      MisBP:0   MisRate:0.00%    MPKI:0.00
PC:2d674     Total:55      MisBP:0   MisRate:0.00%    MPKI:0.00
PC:2c40a     Total:3      MisBP:0   MisRate:0.00%    MPKI:0.00
PC:2ca2a     Total:1      MisBP:0   MisRate:0.00%    MPKI:0.00
PC:14cf2     Total:6956951      MisBP:0   MisRate:0.00%    MPKI:0.00
PC:14d6c     Total:123      MisBP:0   MisRate:0.00%    MPKI:0.00
PC:2ef6e     Total:1146      MisBP:0   MisRate:0.00%    MPKI:0.00
PC:14d62     Total:124      MisBP:0   MisRate:0.00%    MPKI:0.00
PC:2ca9c     Total:475      MisBP:0   MisRate:0.00%    MPKI:0.00
PC:147ea     Total:2195      MisBP:0   MisRate:0.00%    MPKI:0.00
PC:2ef70     Total:1145      MisBP:0   MisRate:0.00%    MPKI:0.00
PC:14d64     Total:124      MisBP:0   MisRate:0.00%    MPKI:0.00
PC:2ca9e     Total:475      MisBP:0   MisRate:0.00%    MPKI:0.00
PC:14d66     Total:124      MisBP:0   MisRate:0.00%    MPKI:0.00
PC:14d68     Total:123      MisBP:0   MisRate:0.00%    MPKI:0.00
PC:2caaa     Total:2      MisBP:0   MisRate:0.00%    MPKI:0.00
PC:147f8     Total:2555      MisBP:0   MisRate:0.00%    MPKI:0.00
PC:2ef7e     Total:1143      MisBP:0   MisRate:0.00%    MPKI:0.00
PC:14d72     Total:33      MisBP:0   MisRate:0.00%    MPKI:0.00
PC:2efa2     Total:773      MisBP:0   MisRate:0.00%    MPKI:0.00
PC:2d550     Total:1570      MisBP:0   MisRate:0.00%    MPKI:0.00
PC:14f6e     Total:751      MisBP:0   MisRate:0.00%    MPKI:0.00
PC:2ca36     Total:2305      MisBP:0   MisRate:0.00%    MPKI:0.00
PC:2cdd8     Total:590      MisBP:0   MisRate:0.00%    MPKI:0.00
PC:14d74     Total:24      MisBP:0   MisRate:0.00%    MPKI:0.00
PC:2caa6     Total:2      MisBP:0   MisRate:0.00%    MPKI:0.00
PC:14d6e     Total:123      MisBP:0   MisRate:0.00%    MPKI:0.00
PC:2ca38     Total:2305      MisBP:0   MisRate:0.00%    MPKI:0.00
PC:14d00     Total:29573021      MisBP:0   MisRate:0.00%    MPKI:0.00
PC:14d76     Total:24      MisBP:0   MisRate:0.00%    MPKI:0.00
PC:14d06     Total:4762245      MisBP:0   MisRate:0.00%    MPKI:0.00
PC:2ca40     Total:2046      MisBP:0   MisRate:0.00%    MPKI:0.00
PC:2ef7c     Total:1143      MisBP:0   MisRate:0.00%    MPKI:0.00
PC:2cd4e     Total:615      MisBP:0   MisRate:0.00%    MPKI:0.00
PC:2cd4a     Total:615      MisBP:0   MisRate:0.00%    MPKI:0.00
PC:2cd46     Total:615      MisBP:0   MisRate:0.00%    MPKI:0.00
PC:2cd42     Total:615      MisBP:0   MisRate:0.00%    MPKI:0.00
PC:2cd3e     Total:615      MisBP:0   MisRate:0.00%    MPKI:0.00
PC:2cd3c     Total:615      MisBP:0   MisRate:0.00%    MPKI:0.00
PC:2cd3a     Total:615      MisBP:0   MisRate:0.00%    MPKI:0.00
PC:2cd36     Total:474      MisBP:0   MisRate:0.00%    MPKI:0.00
PC:2cd32     Total:474      MisBP:0   MisRate:0.00%    MPKI:0.00
PC:2caba     Total:2      MisBP:0   MisRate:0.00%    MPKI:0.00
PC:2ef8e     Total:1130      MisBP:0   MisRate:0.00%    MPKI:0.00
PC:2caa8     Total:2      MisBP:0   MisRate:0.00%    MPKI:0.00
PC:147f6     Total:2556      MisBP:0   MisRate:0.00%    MPKI:0.00
PC:2cd50     Total:615      MisBP:0   MisRate:0.00%    MPKI:0.00
PC:2ca98     Total:475      MisBP:0   MisRate:0.00%    MPKI:0.00
PC:2ef6c     Total:1146      MisBP:0   MisRate:0.00%    MPKI:0.00
PC:2cdba     Total:1408      MisBP:0   MisRate:0.00%    MPKI:0.00
PC:2cdb8     Total:1411      MisBP:0   MisRate:0.00%    MPKI:0.00
PC:2cdb4     Total:1411      MisBP:0   MisRate:0.00%    MPKI:0.00
PC:2cdb0     Total:1816      MisBP:0   MisRate:0.00%    MPKI:0.00
PC:2cdac     Total:1818      MisBP:0   MisRate:0.00%    MPKI:0.00
PC:2ca78     Total:477      MisBP:0   MisRate:0.00%    MPKI:0.00
PC:2ef4c     Total:467      MisBP:0   MisRate:0.00%    MPKI:0.00
PC:2ca72     Total:478      MisBP:0   MisRate:0.00%    MPKI:0.00
PC:2ca66     Total:56      MisBP:0   MisRate:0.00%    MPKI:0.00
PC:2ef3a     Total:471      MisBP:0   MisRate:0.00%    MPKI:0.00
PC:2ca60     Total:61      MisBP:0   MisRate:0.00%    MPKI:0.00
PC:2cd76     Total:177      MisBP:0   MisRate:0.00%    MPKI:0.00
PC:2e0e2     Total:1      MisBP:0   MisRate:0.00%    MPKI:0.00
PC:2d71e     Total:70      MisBP:0   MisRate:0.00%    MPKI:0.00
PC:2c4b4     Total:21      MisBP:0   MisRate:0.00%    MPKI:0.00
PC:2ce74     Total:33      MisBP:0   MisRate:0.00%    MPKI:0.00
PC:2e0de     Total:1      MisBP:0   MisRate:0.00%    MPKI:0.00
PC:2d71a     Total:70      MisBP:0   MisRate:0.00%    MPKI:0.00
PC:2c4b0     Total:21      MisBP:0   MisRate:0.00%    MPKI:0.00
PC:2ce70     Total:33      MisBP:0   MisRate:0.00%    MPKI:0.00
PC:2e0da     Total:1      MisBP:0   MisRate:0.00%    MPKI:0.00
PC:2c988     Total:4137      MisBP:0   MisRate:0.00%    MPKI:0.00
PC:2c986     Total:596      MisBP:0   MisRate:0.00%    MPKI:0.00
PC:2cd7e     Total:353      MisBP:0   MisRate:0.00%    MPKI:0.00
PC:2cd7a     Total:177      MisBP:0   MisRate:0.00%    MPKI:0.00
PC:2ef34     Total:487      MisBP:0   MisRate:0.00%    MPKI:0.00
PC:2cd72     Total:177      MisBP:0   MisRate:0.00%    MPKI:0.00
PC:2cd70     Total:177      MisBP:0   MisRate:0.00%    MPKI:0.00
PC:2cd6c     Total:177      MisBP:0   MisRate:0.00%    MPKI:0.00
PC:2cd6a     Total:177      MisBP:0   MisRate:0.00%    MPKI:0.00
PC:2cd68     Total:177      MisBP:0   MisRate:0.00%    MPKI:0.00
PC:2cd64     Total:203      MisBP:0   MisRate:0.00%    MPKI:0.00
PC:2cd60     Total:203      MisBP:0   MisRate:0.00%    MPKI:0.00
PC:2cd5e     Total:203      MisBP:0   MisRate:0.00%    MPKI:0.00
PC:2cd5c     Total:203      MisBP:0   MisRate:0.00%    MPKI:0.00
PC:2cd5a     Total:203      MisBP:0   MisRate:0.00%    MPKI:0.00
PC:2cd58     Total:203      MisBP:0   MisRate:0.00%    MPKI:0.00
PC:2cd52     Total:615      MisBP:0   MisRate:0.00%    MPKI:0.00
PC:2c9dc     Total:2679      MisBP:0   MisRate:0.00%    MPKI:0.00
PC:2c9fe     Total:2      MisBP:0   MisRate:0.00%    MPKI:0.00
PC:2c9f8     Total:2      MisBP:0   MisRate:0.00%    MPKI:0.00
PC:2c9f6     Total:2      MisBP:0   MisRate:0.00%    MPKI:0.00
PC:2c9f4     Total:2      MisBP:0   MisRate:0.00%    MPKI:0.00
PC:2c9f2     Total:2      MisBP:0   MisRate:0.00%    MPKI:0.00
PC:2c9f0     Total:2      MisBP:0   MisRate:0.00%    MPKI:0.00
PC:2c9ee     Total:2      MisBP:0   MisRate:0.00%    MPKI:0.00
PC:2c9ec     Total:2      MisBP:0   MisRate:0.00%    MPKI:0.00
PC:2c9ea     Total:2      MisBP:0   MisRate:0.00%    MPKI:0.00
PC:2c9e6     Total:2654      MisBP:0   MisRate:0.00%    MPKI:0.00
PC:2c9e4     Total:2654      MisBP:0   MisRate:0.00%    MPKI:0.00
PC:2c9e0     Total:2678      MisBP:0   MisRate:0.00%    MPKI:0.00
PC:2c9de     Total:2679      MisBP:0   MisRate:0.00%    MPKI:0.00
PC:2cf40     Total:4931      MisBP:0   MisRate:0.00%    MPKI:0.00
PC:2c9d8     Total:2679      MisBP:0   MisRate:0.00%    MPKI:0.00
PC:2c9d6     Total:2909      MisBP:0   MisRate:0.00%    MPKI:0.00
PC:2c9d2     Total:2911      MisBP:0   MisRate:0.00%    MPKI:0.00
PC:2c9ce     Total:2911      MisBP:0   MisRate:0.00%    MPKI:0.00
PC:2c9ca     Total:2911      MisBP:0   MisRate:0.00%    MPKI:0.00
PC:2c9c8     Total:2982      MisBP:0   MisRate:0.00%    MPKI:0.00
PC:2c9c4     Total:2985      MisBP:0   MisRate:0.00%    MPKI:0.00
PC:2c9c2     Total:2985      MisBP:0   MisRate:0.00%    MPKI:0.00
PC:2c9be     Total:2985      MisBP:0   MisRate:0.00%    MPKI:0.00
PC:2d506     Total:416      MisBP:0   MisRate:0.00%    MPKI:0.00
PC:2cc5c     Total:10181      MisBP:0   MisRate:0.00%    MPKI:0.00
PC:2cc40     Total:10916      MisBP:0   MisRate:0.00%    MPKI:0.00
PC:2cf62     Total:1      MisBP:0   MisRate:0.00%    MPKI:0.00
PC:2ca52     Total:63      MisBP:0   MisRate:0.00%    MPKI:0.00
PC:2ef26     Total:539      MisBP:0   MisRate:0.00%    MPKI:0.00
PC:2ca30     Total:1      MisBP:0   MisRate:0.00%    MPKI:0.00
PC:2ca26     Total:1      MisBP:0   MisRate:0.00%    MPKI:0.00
PC:2ca22     Total:1      MisBP:0   MisRate:0.00%    MPKI:0.00
PC:2ca1e     Total:1      MisBP:0   MisRate:0.00%    MPKI:0.00
PC:2ca0e     Total:1      MisBP:0   MisRate:0.00%    MPKI:0.00
PC:2cf6e     Total:1      MisBP:0   MisRate:0.00%    MPKI:0.00
PC:2cf6a     Total:1      MisBP:0   MisRate:0.00%    MPKI:0.00
PC:2cf68     Total:1      MisBP:0   MisRate:0.00%    MPKI:0.00
PC:2f43c     Total:18447      MisBP:0   MisRate:0.00%    MPKI:0.00
PC:2cf64     Total:1      MisBP:0   MisRate:0.00%    MPKI:0.00
PC:2f438     Total:18447      MisBP:0   MisRate:0.00%    MPKI:0.00
PC:2ce78     Total:33      MisBP:0   MisRate:0.00%    MPKI:0.00
PC:2f436     Total:18447      MisBP:0   MisRate:0.00%    MPKI:0.00
PC:2cf60     Total:1      MisBP:0   MisRate:0.00%    MPKI:0.00
PC:2cf5c     Total:1      MisBP:0   MisRate:0.00%    MPKI:0.00
PC:2f430     Total:36894      MisBP:0   MisRate:0.00%    MPKI:0.00
PC:2cf58     Total:1      MisBP:0   MisRate:0.00%    MPKI:0.00
PC:2f42c     Total:18447      MisBP:0   MisRate:0.00%    MPKI:0.00
PC:2cf56     Total:31      MisBP:0   MisRate:0.00%    MPKI:0.00
PC:2cf52     Total:31      MisBP:0   MisRate:0.00%    MPKI:0.00
PC:2cf4e     Total:31      MisBP:0   MisRate:0.00%    MPKI:0.00
PC:2cf48     Total:4931      MisBP:0   MisRate:0.00%    MPKI:0.00
PC:2cf46     Total:4931      MisBP:0   MisRate:0.00%    MPKI:0.00
PC:2cf42     Total:4931      MisBP:0   MisRate:0.00%    MPKI:0.00
PC:2d74c     Total:238      MisBP:0   MisRate:0.00%    MPKI:0.00
PC:2d764     Total:3      MisBP:0   MisRate:0.00%    MPKI:0.00
PC:2d760     Total:6      MisBP:0   MisRate:0.00%    MPKI:0.00
PC:2c4f6     Total:48      MisBP:0   MisRate:0.00%    MPKI:0.00
PC:2d75e     Total:4      MisBP:0   MisRate:0.00%    MPKI:0.00
PC:2d75a     Total:4      MisBP:0   MisRate:0.00%    MPKI:0.00
PC:2c4f0     Total:48      MisBP:0   MisRate:0.00%    MPKI:0.00
PC:2c4ee     Total:48      MisBP:0   MisRate:0.00%    MPKI:0.00
PC:2d756     Total:236      MisBP:0   MisRate:0.00%    MPKI:0.00
PC:2c4ec     Total:48      MisBP:0   MisRate:0.00%    MPKI:0.00
PC:2d752     Total:236      MisBP:0   MisRate:0.00%    MPKI:0.00
PC:2c4e8     Total:810      MisBP:0   MisRate:0.00%    MPKI:0.00
PC:2d750     Total:238      MisBP:0   MisRate:0.00%    MPKI:0.00
PC:2d74e     Total:238      MisBP:0   MisRate:0.00%    MPKI:0.00
PC:2c4fc     Total:47      MisBP:0   MisRate:0.00%    MPKI:0.00
PC:2c4e2     Total:842      MisBP:0   MisRate:0.00%    MPKI:0.00
PC:2d74a     Total:238      MisBP:0   MisRate:0.00%    MPKI:0.00
PC:2c4e0     Total:842      MisBP:0   MisRate:0.00%    MPKI:0.00
PC:2d748     Total:238      MisBP:0   MisRate:0.00%    MPKI:0.00
PC:2c4de     Total:845      MisBP:0   MisRate:0.00%    MPKI:0.00
PC:2d746     Total:238      MisBP:0   MisRate:0.00%    MPKI:0.00
PC:2d744     Total:193      MisBP:0   MisRate:0.00%    MPKI:0.00
PC:2c4da     Total:845      MisBP:0   MisRate:0.00%    MPKI:0.00
PC:2d740     Total:193      MisBP:0   MisRate:0.00%    MPKI:0.00
PC:2c4d6     Total:845      MisBP:0   MisRate:0.00%    MPKI:0.00
PC:2d73e     Total:192      MisBP:0   MisRate:0.00%    MPKI:0.00
PC:2d73a     Total:201      MisBP:0   MisRate:0.00%    MPKI:0.00
PC:2c512     Total:71      MisBP:0   MisRate:0.00%    MPKI:0.00
PC:2d7d6     Total:48      MisBP:0   MisRate:0.00%    MPKI:0.00
PC:2c56c     Total:4      MisBP:0   MisRate:0.00%    MPKI:0.00
PC:2d7d2     Total:48      MisBP:0   MisRate:0.00%    MPKI:0.00
PC:2c568     Total:4      MisBP:0   MisRate:0.00%    MPKI:0.00
PC:2c566     Total:4      MisBP:0   MisRate:0.00%    MPKI:0.00
PC:2d7ce     Total:217      MisBP:0   MisRate:0.00%    MPKI:0.00
PC:2c564     Total:4      MisBP:0   MisRate:0.00%    MPKI:0.00
PC:2d7cc     Total:217      MisBP:0   MisRate:0.00%    MPKI:0.00
PC:2c562     Total:4      MisBP:0   MisRate:0.00%    MPKI:0.00
PC:2c560     Total:4      MisBP:0   MisRate:0.00%    MPKI:0.00
PC:2d7c8     Total:1042      MisBP:0   MisRate:0.00%    MPKI:0.00
PC:2c55e     Total:4      MisBP:0   MisRate:0.00%    MPKI:0.00
PC:2d77c     Total:6      MisBP:0   MisRate:0.00%    MPKI:0.00
PC:2c4d0     Total:849      MisBP:0   MisRate:0.00%    MPKI:0.00
PC:2d77a     Total:6      MisBP:0   MisRate:0.00%    MPKI:0.00
PC:2d776     Total:7      MisBP:0   MisRate:0.00%    MPKI:0.00
PC:2d774     Total:7      MisBP:0   MisRate:0.00%    MPKI:0.00
PC:2c50a     Total:9      MisBP:0   MisRate:0.00%    MPKI:0.00
PC:2d770     Total:7      MisBP:0   MisRate:0.00%    MPKI:0.00
PC:2d76e     Total:7      MisBP:0   MisRate:0.00%    MPKI:0.00
PC:2c502     Total:47      MisBP:0   MisRate:0.00%    MPKI:0.00
PC:2d76a     Total:7      MisBP:0   MisRate:0.00%    MPKI:0.00
PC:2c500     Total:47      MisBP:0   MisRate:0.00%    MPKI:0.00
PC:2d768     Total:7      MisBP:0   MisRate:0.00%    MPKI:0.00
PC:2c4fe     Total:47      MisBP:0   MisRate:0.00%    MPKI:0.00
PC:2d766     Total:3      MisBP:0   MisRate:0.00%    MPKI:0.00
PC:2cde2     Total:377      MisBP:0   MisRate:0.00%    MPKI:0.00
PC:2d8a6     Total:196      MisBP:0   MisRate:0.00%    MPKI:0.00
PC:2d8a2     Total:196      MisBP:0   MisRate:0.00%    MPKI:0.00
PC:2d8a0     Total:196      MisBP:0   MisRate:0.00%    MPKI:0.00
PC:2d89c     Total:196      MisBP:0   MisRate:0.00%    MPKI:0.00
PC:2d89a     Total:196      MisBP:0   MisRate:0.00%    MPKI:0.00
PC:2d896     Total:196      MisBP:0   MisRate:0.00%    MPKI:0.00
PC:2d894     Total:196      MisBP:0   MisRate:0.00%    MPKI:0.00
PC:2d890     Total:196      MisBP:0   MisRate:0.00%    MPKI:0.00
PC:2cdf6     Total:366      MisBP:0   MisRate:0.00%    MPKI:0.00
PC:2cdf2     Total:366      MisBP:0   MisRate:0.00%    MPKI:0.00
PC:2cdee     Total:369      MisBP:0   MisRate:0.00%    MPKI:0.00
PC:2cdea     Total:369      MisBP:0   MisRate:0.00%    MPKI:0.00
PC:2cde6     Total:377      MisBP:0   MisRate:0.00%    MPKI:0.00
PC:2d8a8     Total:196      MisBP:0   MisRate:0.00%    MPKI:0.00
PC:2cddc     Total:377      MisBP:0   MisRate:0.00%    MPKI:0.00
PC:2d678     Total:22      MisBP:0   MisRate:0.00%    MPKI:0.00
PC:2c40e     Total:3      MisBP:0   MisRate:0.00%    MPKI:0.00
PC:2cdce     Total:593      MisBP:0   MisRate:0.00%    MPKI:0.00
PC:2cdc8     Total:1051      MisBP:0   MisRate:0.00%    MPKI:0.00
PC:10a14     Total:1018      MisBP:0   MisRate:0.00%    MPKI:0.00
PC:2cdc4     Total:1051      MisBP:0   MisRate:0.00%    MPKI:0.00
PC:2d66a     Total:362      MisBP:0   MisRate:0.00%    MPKI:0.00
PC:2c400     Total:4      MisBP:0   MisRate:0.00%    MPKI:0.00
PC:2cdc0     Total:1053      MisBP:0   MisRate:0.00%    MPKI:0.00
PC:2ce7c     Total:33      MisBP:0   MisRate:0.00%    MPKI:0.00
PC:2d722     Total:68      MisBP:0   MisRate:0.00%    MPKI:0.00
PC:2d5bc     Total:106      MisBP:0   MisRate:0.00%    MPKI:0.00
PC:2d738     Total:201      MisBP:0   MisRate:0.00%    MPKI:0.00
PC:2c4ce     Total:20      MisBP:0   MisRate:0.00%    MPKI:0.00
PC:2d734     Total:201      MisBP:0   MisRate:0.00%    MPKI:0.00
PC:2c4ca     Total:20      MisBP:0   MisRate:0.00%    MPKI:0.00
PC:2d732     Total:201      MisBP:0   MisRate:0.00%    MPKI:0.00
PC:2c4c8     Total:20      MisBP:0   MisRate:0.00%    MPKI:0.00
PC:2d72e     Total:201      MisBP:0   MisRate:0.00%    MPKI:0.00
PC:2c4c4     Total:20      MisBP:0   MisRate:0.00%    MPKI:0.00
PC:2d72c     Total:203      MisBP:0   MisRate:0.00%    MPKI:0.00
PC:2c4c2     Total:20      MisBP:0   MisRate:0.00%    MPKI:0.00
PC:2d72a     Total:203      MisBP:0   MisRate:0.00%    MPKI:0.00
PC:2c4a6     Total:22      MisBP:0   MisRate:0.00%    MPKI:0.00
PC:2d70c     Total:238      MisBP:0   MisRate:0.00%    MPKI:0.00
PC:2c9b8     Total:6756      MisBP:0   MisRate:0.00%    MPKI:0.00
PC:2d5b8     Total:106      MisBP:0   MisRate:0.00%    MPKI:0.00
PC:2d5b4     Total:106      MisBP:0   MisRate:0.00%    MPKI:0.00
PC:2d518     Total:438      MisBP:0   MisRate:0.00%    MPKI:0.00
PC:2d500     Total:417      MisBP:0   MisRate:0.00%    MPKI:0.00
PC:2d4f8     Total:418      MisBP:0   MisRate:0.00%    MPKI:0.00
PC:2d8bc     Total:201      MisBP:0   MisRate:0.00%    MPKI:0.00
PC:2d8b8     Total:201      MisBP:0   MisRate:0.00%    MPKI:0.00
PC:2d8b6     Total:201      MisBP:0   MisRate:0.00%    MPKI:0.00
PC:2d8b4     Total:193      MisBP:0   MisRate:0.00%    MPKI:0.00
PC:2d8b2     Total:193      MisBP:0   MisRate:0.00%    MPKI:0.00
PC:2d8ae     Total:193      MisBP:0   MisRate:0.00%    MPKI:0.00
PC:2d8ac     Total:193      MisBP:0   MisRate:0.00%    MPKI:0.00
PC:2c90e     Total:193      MisBP:0   MisRate:0.00%    MPKI:0.00
PC:2c91a     Total:179      MisBP:0   MisRate:0.00%    MPKI:0.00
PC:2f46c     Total:43      MisBP:0   MisRate:0.00%    MPKI:0.00
PC:2c918     Total:179      MisBP:0   MisRate:0.00%    MPKI:0.00
PC:2f46a     Total:43      MisBP:0   MisRate:0.00%    MPKI:0.00
PC:14ce4     Total:6974468      MisBP:0   MisRate:0.00%    MPKI:0.00
PC:2c914     Total:179      MisBP:0   MisRate:0.00%    MPKI:0.00
PC:2f466     Total:43      MisBP:0   MisRate:0.00%    MPKI:0.00
PC:14ce0     Total:144832      MisBP:0   MisRate:0.00%    MPKI:0.00
PC:2f464     Total:43      MisBP:0   MisRate:0.00%    MPKI:0.00
PC:14cde     Total:144832      MisBP:0   MisRate:0.00%    MPKI:0.00
PC:2c910     Total:193      MisBP:0   MisRate:0.00%    MPKI:0.00
PC:2f462     Total:43      MisBP:0   MisRate:0.00%    MPKI:0.00
PC:14cdc     Total:144863      MisBP:0   MisRate:0.00%    MPKI:0.00
PC:14ce8     Total:6967156      MisBP:0   MisRate:0.00%    MPKI:0.00
PC:2f460     Total:43      MisBP:0   MisRate:0.00%    MPKI:0.00
PC:14cda     Total:144873      MisBP:0   MisRate:0.00%    MPKI:0.00
PC:2c90c     Total:193      MisBP:0   MisRate:0.00%    MPKI:0.00
PC:2f45e     Total:43      MisBP:0   MisRate:0.00%    MPKI:0.00
PC:14cd8     Total:144873      MisBP:0   MisRate:0.00%    MPKI:0.00
PC:2c908     Total:193      MisBP:0   MisRate:0.00%    MPKI:0.00
PC:2f45a     Total:43      MisBP:0   MisRate:0.00%    MPKI:0.00
PC:14cd4     Total:144873      MisBP:0   MisRate:0.00%    MPKI:0.00
PC:2c906     Total:193      MisBP:0   MisRate:0.00%    MPKI:0.00
PC:2f458     Total:43      MisBP:0   MisRate:0.00%    MPKI:0.00
PC:2f454     Total:43      MisBP:0   MisRate:0.00%    MPKI:0.00
PC:14cce     Total:152925      MisBP:0   MisRate:0.00%    MPKI:0.00
PC:2c8fe     Total:199      MisBP:0   MisRate:0.00%    MPKI:0.00
PC:2c92c     Total:162      MisBP:0   MisRate:0.00%    MPKI:0.00
PC:14d0a     Total:4758195      MisBP:0   MisRate:0.00%    MPKI:0.00
PC:2c93c     Total:30      MisBP:0   MisRate:0.00%    MPKI:0.00
PC:2f48e     Total:12850      MisBP:0   MisRate:0.00%    MPKI:0.00
PC:14d08     Total:4762068      MisBP:0   MisRate:0.00%    MPKI:0.00
PC:2f48a     Total:12850      MisBP:0   MisRate:0.00%    MPKI:0.00
PC:2c936     Total:147      MisBP:0   MisRate:0.00%    MPKI:0.00
PC:2f488     Total:12850      MisBP:0   MisRate:0.00%    MPKI:0.00
PC:14d02     Total:29544314      MisBP:0   MisRate:0.00%    MPKI:0.00
PC:2c932     Total:147      MisBP:0   MisRate:0.00%    MPKI:0.00
PC:2f484     Total:38      MisBP:0   MisRate:0.00%    MPKI:0.00
PC:14cfe     Total:30996037      MisBP:0   MisRate:0.00%    MPKI:0.00
PC:2c92e     Total:11      MisBP:0   MisRate:0.00%    MPKI:0.00
PC:2f480     Total:78      MisBP:0   MisRate:0.00%    MPKI:0.00
PC:2f450     Total:43      MisBP:0   MisRate:0.00%    MPKI:0.00
PC:2f47e     Total:43      MisBP:0   MisRate:0.00%    MPKI:0.00
PC:2c928     Total:172      MisBP:0   MisRate:0.00%    MPKI:0.00
PC:2f47a     Total:43      MisBP:0   MisRate:0.00%    MPKI:0.00
PC:14cf4     Total:6956728      MisBP:0   MisRate:0.00%    MPKI:0.00
PC:2f476     Total:43      MisBP:0   MisRate:0.00%    MPKI:0.00
PC:14cf0     Total:6957600      MisBP:0   MisRate:0.00%    MPKI:0.00
PC:2c922     Total:172      MisBP:0   MisRate:0.00%    MPKI:0.00
PC:2f474     Total:43      MisBP:0   MisRate:0.00%    MPKI:0.00
PC:2c91e     Total:172      MisBP:0   MisRate:0.00%    MPKI:0.00
PC:2f470     Total:43      MisBP:0   MisRate:0.00%    MPKI:0.00
PC:2c91c     Total:172      MisBP:0   MisRate:0.00%    MPKI:0.00
PC:2f46e     Total:43      MisBP:0   MisRate:0.00%    MPKI:0.00
PC:2cae0     Total:1      MisBP:0   MisRate:0.00%    MPKI:0.00
PC:2ca0a     Total:1      MisBP:0   MisRate:0.00%    MPKI:0.00
PC:1487e     Total:2393      MisBP:0   MisRate:0.00%    MPKI:0.00
PC:1487a     Total:2416      MisBP:0   MisRate:0.00%    MPKI:0.00
PC:14878     Total:2416      MisBP:0   MisRate:0.00%    MPKI:0.00
PC:14874     Total:2422      MisBP:0   MisRate:0.00%    MPKI:0.00
PC:14870     Total:2422      MisBP:0   MisRate:0.00%    MPKI:0.00
PC:14dce     Total:1000      MisBP:0   MisRate:0.00%    MPKI:0.00
PC:1486c     Total:2422      MisBP:0   MisRate:0.00%    MPKI:0.00
PC:1485c     Total:2424      MisBP:0   MisRate:0.00%    MPKI:0.00
PC:14858     Total:2425      MisBP:0   MisRate:0.00%    MPKI:0.00
PC:14854     Total:2448      MisBP:0   MisRate:0.00%    MPKI:0.00
PC:1484e     Total:2448      MisBP:0   MisRate:0.00%    MPKI:0.00
PC:1482e     Total:2459      MisBP:0   MisRate:0.00%    MPKI:0.00
PC:14898     Total:2407      MisBP:0   MisRate:0.00%    MPKI:0.00
PC:1482a     Total:2459      MisBP:0   MisRate:0.00%    MPKI:0.00
PC:2cadc     Total:1      MisBP:0   MisRate:0.00%    MPKI:0.00
PC:14826     Total:2507      MisBP:0   MisRate:0.00%    MPKI:0.00
PC:2efac     Total:3076      MisBP:0   MisRate:0.00%    MPKI:0.00
PC:2cad8     Total:1      MisBP:0   MisRate:0.00%    MPKI:0.00
PC:14824     Total:2507      MisBP:0   MisRate:0.00%    MPKI:0.00
PC:2efaa     Total:770      MisBP:0   MisRate:0.00%    MPKI:0.00
PC:14820     Total:2507      MisBP:0   MisRate:0.00%    MPKI:0.00
PC:2efa6     Total:773      MisBP:0   MisRate:0.00%    MPKI:0.00
PC:2cad2     Total:1      MisBP:0   MisRate:0.00%    MPKI:0.00
PC:2cdfe     Total:366      MisBP:0   MisRate:0.00%    MPKI:0.00
PC:1481c     Total:2507      MisBP:0   MisRate:0.00%    MPKI:0.00
PC:14ef8     Total:72679      MisBP:0   MisRate:0.00%    MPKI:0.00
PC:14cca     Total:152773      MisBP:0   MisRate:0.00%    MPKI:0.00
PC:2c8fa     Total:199      MisBP:0   MisRate:0.00%    MPKI:0.00
PC:2f44c     Total:43      MisBP:0   MisRate:0.00%    MPKI:0.00
PC:14cc4     Total:1583259      MisBP:0   MisRate:0.00%    MPKI:0.00
PC:2c8f6     Total:199      MisBP:0   MisRate:0.00%    MPKI:0.00
PC:2f448     Total:13093      MisBP:0   MisRate:0.00%    MPKI:0.00
PC:2c8f2     Total:199      MisBP:0   MisRate:0.00%    MPKI:0.00
PC:2f444     Total:13093      MisBP:0   MisRate:0.00%    MPKI:0.00
PC:2c8ee     Total:201      MisBP:0   MisRate:0.00%    MPKI:0.00
PC:2f440     Total:13093      MisBP:0   MisRate:0.00%    MPKI:0.00
PC:14f02     Total:129711      MisBP:0   MisRate:0.00%    MPKI:0.00
PC:14efe     Total:18531      MisBP:0   MisRate:0.00%    MPKI:0.00
PC:14efa     Total:72659      MisBP:0   MisRate:0.00%    MPKI:0.00
PC:2f490     Total:12850      MisBP:0   MisRate:0.00%    MPKI:0.00
PC:14ef4     Total:72681      MisBP:0   MisRate:0.00%    MPKI:0.00
PC:14ef0     Total:75131      MisBP:0   MisRate:0.00%    MPKI:0.00
PC:14eea     Total:75907      MisBP:0   MisRate:0.00%    MPKI:0.00
PC:14ee6     Total:75908      MisBP:0   MisRate:0.00%    MPKI:0.00
PC:14ee2     Total:75914      MisBP:0   MisRate:0.00%    MPKI:0.00
PC:14ee0     Total:75914      MisBP:0   MisRate:0.00%    MPKI:0.00
PC:14edc     Total:75943      MisBP:0   MisRate:0.00%    MPKI:0.00
PC:14ed0     Total:11244      MisBP:0   MisRate:0.00%    MPKI:0.00
PC:14de2     Total:79973      MisBP:0   MisRate:0.00%    MPKI:0.00
PC:14dd8     Total:998      MisBP:0   MisRate:0.00%    MPKI:0.00
PC:14dd4     Total:998      MisBP:0   MisRate:0.00%    MPKI:0.00
PC:2c4ba     Total:21      MisBP:0   MisRate:0.00%    MPKI:0.00
PC:2c8d2     Total:202      MisBP:0   MisRate:0.00%    MPKI:0.00
PC:2c960     Total:110      MisBP:0   MisRate:0.00%    MPKI:0.00
PC:2c95a     Total:115      MisBP:0   MisRate:0.00%    MPKI:0.00
PC:2c946     Total:119      MisBP:0   MisRate:0.00%    MPKI:0.00
PC:2c942     Total:120      MisBP:0   MisRate:0.00%    MPKI:0.00
PC:2c934     Total:147      MisBP:0   MisRate:0.00%    MPKI:0.00
PC:2c930     Total:147      MisBP:0   MisRate:0.00%    MPKI:0.00
PC:2c926     Total:172      MisBP:0   MisRate:0.00%    MPKI:0.00
PC:2c90a     Total:193      MisBP:0   MisRate:0.00%    MPKI:0.00
PC:2c904     Total:193      MisBP:0   MisRate:0.00%    MPKI:0.00
PC:2c900     Total:193      MisBP:0   MisRate:0.00%    MPKI:0.00
PC:2c8f4     Total:199      MisBP:0   MisRate:0.00%    MPKI:0.00
PC:2c8d8     Total:202      MisBP:0   MisRate:0.00%    MPKI:0.00
PC:2c8d4     Total:202      MisBP:0   MisRate:0.00%    MPKI:0.00
PC:14f06     Total:628      MisBP:0   MisRate:0.00%    MPKI:0.00
PC:2c8ce     Total:202      MisBP:0   MisRate:0.00%    MPKI:0.00
PC:2c8ca     Total:202      MisBP:0   MisRate:0.00%    MPKI:0.00
PC:2c8c6     Total:202      MisBP:0   MisRate:0.00%    MPKI:0.00
PC:2c8c4     Total:202      MisBP:0   MisRate:0.00%    MPKI:0.00
PC:2c8c0     Total:202      MisBP:0   MisRate:0.00%    MPKI:0.00
PC:2c8bc     Total:206      MisBP:0   MisRate:0.00%    MPKI:0.00
PC:2c8b8     Total:11971      MisBP:0   MisRate:0.00%    MPKI:0.00
PC:2c8b6     Total:11971      MisBP:0   MisRate:0.00%    MPKI:0.00
PC:2c8b2     Total:11971      MisBP:0   MisRate:0.00%    MPKI:0.00
PC:2c8b0     Total:11972      MisBP:0   MisRate:0.00%    MPKI:0.00
PC:2c8ac     Total:11972      MisBP:0   MisRate:0.00%    MPKI:0.00
PC:2c8aa     Total:11972      MisBP:0   MisRate:0.00%    MPKI:0.00
PC:2c966     Total:39      MisBP:0   MisRate:0.00%    MPKI:0.00
PC:2c9b6     Total:6756      MisBP:0   MisRate:0.00%    MPKI:0.00
PC:2c9b4     Total:24      MisBP:0   MisRate:0.00%    MPKI:0.00
PC:2c9b2     Total:24      MisBP:0   MisRate:0.00%    MPKI:0.00
PC:2c9ae     Total:24      MisBP:0   MisRate:0.00%    MPKI:0.00
PC:2c9aa     Total:24      MisBP:0   MisRate:0.00%    MPKI:0.00
PC:2c9a6     Total:24      MisBP:0   MisRate:0.00%    MPKI:0.00
PC:2c9a4     Total:24      MisBP:0   MisRate:0.00%    MPKI:0.00
PC:2c9a2     Total:24      MisBP:0   MisRate:0.00%    MPKI:0.00
PC:2c99e     Total:24      MisBP:0   MisRate:0.00%    MPKI:0.00
PC:2c99c     Total:24      MisBP:0   MisRate:0.00%    MPKI:0.00
PC:2c994     Total:11713      MisBP:0   MisRate:0.00%    MPKI:0.00
PC:2c990     Total:11713      MisBP:0   MisRate:0.00%    MPKI:0.00
PC:2c98c     Total:11729      MisBP:0   MisRate:0.00%    MPKI:0.00
PC:2c8a6     Total:12059      MisBP:0   MisRate:0.00%    MPKI:0.00
PC:2cc4c     Total:10916      MisBP:0   MisRate:0.00%    MPKI:0.00
PC:14f14     Total:4380      MisBP:0   MisRate:0.00%    MPKI:0.00
PC:2d4f4     Total:418      MisBP:0   MisRate:0.00%    MPKI:0.00
PC:2cc4a     Total:10916      MisBP:0   MisRate:0.00%    MPKI:0.00
PC:14f12     Total:628      MisBP:0   MisRate:0.00%    MPKI:0.00
PC:2d4f2     Total:418      MisBP:0   MisRate:0.00%    MPKI:0.00
PC:2cc48     Total:10916      MisBP:0   MisRate:0.00%    MPKI:0.00
PC:14f10     Total:628      MisBP:0   MisRate:0.00%    MPKI:0.00
PC:2cc44     Total:10916      MisBP:0   MisRate:0.00%    MPKI:0.00
PC:14f0c     Total:628      MisBP:0   MisRate:0.00%    MPKI:0.00
PC:14f0a     Total:628      MisBP:0   MisRate:0.00%    MPKI:0.00
PC:2cc3e     Total:11574      MisBP:0   MisRate:0.00%    MPKI:0.00
PC:2c958     Total:115      MisBP:0   MisRate:0.00%    MPKI:0.00
PC:2d62a     Total:83      MisBP:0   MisRate:0.00%    MPKI:0.00
PC:2d50e     Total:419      MisBP:0   MisRate:0.00%    MPKI:0.00
PC:2cc64     Total:10178      MisBP:0   MisRate:0.00%    MPKI:0.00
PC:2c3ba     Total:36      MisBP:0   MisRate:0.00%    MPKI:0.00
PC:2d50a     Total:419      MisBP:0   MisRate:0.00%    MPKI:0.00
PC:2cc60     Total:10178      MisBP:0   MisRate:0.00%    MPKI:0.00
PC:2c3b6     Total:180      MisBP:0   MisRate:0.00%    MPKI:0.00
PC:2d620     Total:1085      MisBP:0   MisRate:0.00%    MPKI:0.00
PC:2c95e     Total:110      MisBP:0   MisRate:0.00%    MPKI:0.00
PC:2f4b0     Total:6      MisBP:0   MisRate:0.00%    MPKI:0.00
PC:14d2a     Total:4619265      MisBP:0   MisRate:0.00%    MPKI:0.00
PC:2c95c     Total:110      MisBP:0   MisRate:0.00%    MPKI:0.00
PC:2f4ae     Total:2      MisBP:0   MisRate:0.00%    MPKI:0.00
PC:2c3c0     Total:33      MisBP:0   MisRate:0.00%    MPKI:0.00
PC:2f4aa     Total:4      MisBP:0   MisRate:0.00%    MPKI:0.00
PC:14d24     Total:4621611      MisBP:0   MisRate:0.00%    MPKI:0.00
PC:2c956     Total:119      MisBP:0   MisRate:0.00%    MPKI:0.00
PC:2f4a8     Total:2      MisBP:0   MisRate:0.00%    MPKI:0.00
PC:14d22     Total:4624689      MisBP:0   MisRate:0.00%    MPKI:0.00
PC:2c944     Total:120      MisBP:0   MisRate:0.00%    MPKI:0.00
PC:2f496     Total:12850      MisBP:0   MisRate:0.00%    MPKI:0.00
PC:14d10     Total:4692710      MisBP:0   MisRate:0.00%    MPKI:0.00
PC:2c940     Total:23      MisBP:0   MisRate:0.00%    MPKI:0.00
PC:2f492     Total:12850      MisBP:0   MisRate:0.00%    MPKI:0.00
PC:14d0c     Total:4757943      MisBP:0   MisRate:0.00%    MPKI:0.00
PC:2c93e     Total:26      MisBP:0   MisRate:0.00%    MPKI:0.00
PC:2c87e     Total:123110      MisBP:0   MisRate:0.00%    MPKI:0.00
PC:2c8a2     Total:12060      MisBP:0   MisRate:0.00%    MPKI:0.00
PC:2c89e     Total:12060      MisBP:0   MisRate:0.00%    MPKI:0.00
PC:2c89c     Total:12060      MisBP:0   MisRate:0.00%    MPKI:0.00
PC:2c89a     Total:12060      MisBP:0   MisRate:0.00%    MPKI:0.00
PC:2c896     Total:12060      MisBP:0   MisRate:0.00%    MPKI:0.00
PC:2c894     Total:12060      MisBP:0   MisRate:0.00%    MPKI:0.00
PC:2c890     Total:12060      MisBP:0   MisRate:0.00%    MPKI:0.00
PC:2c88e     Total:12186      MisBP:0   MisRate:0.00%    MPKI:0.00
PC:2c88c     Total:12188      MisBP:0   MisRate:0.00%    MPKI:0.00
PC:2c888     Total:12189      MisBP:0   MisRate:0.00%    MPKI:0.00
PC:2c886     Total:12189      MisBP:0   MisRate:0.00%    MPKI:0.00
PC:2c884     Total:12189      MisBP:0   MisRate:0.00%    MPKI:0.00
PC:2c882     Total:12190      MisBP:0   MisRate:0.00%    MPKI:0.00
PC:12cfe     Total:1253      MisBP:0   MisRate:0.00%    MPKI:0.00
PC:2c87c     Total:12531      MisBP:0   MisRate:0.00%    MPKI:0.00
PC:2c3e0     Total:33      MisBP:0   MisRate:0.00%    MPKI:0.00
PC:2d520     Total:438      MisBP:0   MisRate:0.00%    MPKI:0.00
PC:2cc76     Total:1      MisBP:0   MisRate:0.00%    MPKI:0.00
PC:2c3cc     Total:33      MisBP:0   MisRate:0.00%    MPKI:0.00
PC:2d636     Total:80      MisBP:0   MisRate:0.00%    MPKI:0.00
PC:2d51c     Total:438      MisBP:0   MisRate:0.00%    MPKI:0.00
PC:2cc72     Total:9598      MisBP:0   MisRate:0.00%    MPKI:0.00
PC:2c3c8     Total:33      MisBP:0   MisRate:0.00%    MPKI:0.00
PC:2d632     Total:80      MisBP:0   MisRate:0.00%    MPKI:0.00
PC:2d514     Total:419      MisBP:0   MisRate:0.00%    MPKI:0.00
PC:2cc6a     Total:10178      MisBP:0   MisRate:0.00%    MPKI:0.00
PC:2d86e     Total:1      MisBP:0   MisRate:0.00%    MPKI:0.00
PC:2d84e     Total:1      MisBP:0   MisRate:0.00%    MPKI:0.00
PC:2d850     Total:1      MisBP:0   MisRate:0.00%    MPKI:0.00
PC:2d854     Total:1      MisBP:0   MisRate:0.00%    MPKI:0.00
PC:2d856     Total:1      MisBP:0   MisRate:0.00%    MPKI:0.00
PC:2d858     Total:1      MisBP:0   MisRate:0.00%    MPKI:0.00
PC:2d85a     Total:1      MisBP:0   MisRate:0.00%    MPKI:0.00
PC:2d85c     Total:1      MisBP:0   MisRate:0.00%    MPKI:0.00
PC:2d85e     Total:1      MisBP:0   MisRate:0.00%    MPKI:0.00
PC:2d860     Total:1      MisBP:0   MisRate:0.00%    MPKI:0.00
PC:2d862     Total:1      MisBP:0   MisRate:0.00%    MPKI:0.00
PC:2d866     Total:1      MisBP:0   MisRate:0.00%    MPKI:0.00
PC:2d868     Total:1      MisBP:0   MisRate:0.00%    MPKI:0.00
PC:2d86c     Total:1      MisBP:0   MisRate:0.00%    MPKI:0.00
PC:2d84c     Total:1      MisBP:0   MisRate:0.00%    MPKI:0.00
PC:2d870     Total:1      MisBP:0   MisRate:0.00%    MPKI:0.00
PC:2d874     Total:1      MisBP:0   MisRate:0.00%    MPKI:0.00
PC:2d878     Total:1      MisBP:0   MisRate:0.00%    MPKI:0.00
PC:2d87c     Total:1      MisBP:0   MisRate:0.00%    MPKI:0.00
PC:2c53a     Total:72      MisBP:0   MisRate:0.00%    MPKI:0.00
PC:2d7a4     Total:1      MisBP:0   MisRate:0.00%    MPKI:0.00
PC:2c53c     Total:71      MisBP:0   MisRate:0.00%    MPKI:0.00
PC:2c540     Total:69      MisBP:0   MisRate:0.00%    MPKI:0.00
PC:2c544     Total:69      MisBP:0   MisRate:0.00%    MPKI:0.00
PC:2c546     Total:69      MisBP:0   MisRate:0.00%    MPKI:0.00
PC:2c54a     Total:69      MisBP:0   MisRate:0.00%    MPKI:0.00
PC:2c54c     Total:69      MisBP:0   MisRate:0.00%    MPKI:0.00
PC:2c552     Total:4      MisBP:0   MisRate:0.00%    MPKI:0.00
PC:2d818     Total:2      MisBP:0   MisRate:0.00%    MPKI:0.00
PC:2c4ac     Total:21      MisBP:0   MisRate:0.00%    MPKI:0.00
PC:2c4d2     Total:848      MisBP:0   MisRate:0.00%    MPKI:0.00
PC:2c4ea     Total:48      MisBP:0   MisRate:0.00%    MPKI:0.00
PC:2c4f2     Total:48      MisBP:0   MisRate:0.00%    MPKI:0.00
PC:2c4f8     Total:48      MisBP:0   MisRate:0.00%    MPKI:0.00
PC:2c5a6     Total:835      MisBP:0   MisRate:0.00%    MPKI:0.00
PC:2d810     Total:2      MisBP:0   MisRate:0.00%    MPKI:0.00
PC:2c5a8     Total:828      MisBP:0   MisRate:0.00%    MPKI:0.00
PC:2d812     Total:2      MisBP:0   MisRate:0.00%    MPKI:0.00
PC:2c5aa     Total:828      MisBP:0   MisRate:0.00%    MPKI:0.00
PC:2d814     Total:2      MisBP:0   MisRate:0.00%    MPKI:0.00
PC:2c5ac     Total:828      MisBP:0   MisRate:0.00%    MPKI:0.00
PC:2c5ae     Total:968      MisBP:0   MisRate:0.00%    MPKI:0.00
PC:2c558     Total:4      MisBP:0   MisRate:0.00%    MPKI:0.00
PC:2c5b0     Total:968      MisBP:0   MisRate:0.00%    MPKI:0.00
PC:2d81a     Total:2      MisBP:0   MisRate:0.00%    MPKI:0.00
PC:2d81c     Total:2      MisBP:0   MisRate:0.00%    MPKI:0.00
PC:2c5b4     Total:51      MisBP:0   MisRate:0.00%    MPKI:0.00
PC:2d81e     Total:2      MisBP:0   MisRate:0.00%    MPKI:0.00
PC:2c5b6     Total:357      MisBP:0   MisRate:0.00%    MPKI:0.00
PC:2d820     Total:2      MisBP:0   MisRate:0.00%    MPKI:0.00
PC:2d840     Total:1      MisBP:0   MisRate:0.00%    MPKI:0.00
PC:2d842     Total:1      MisBP:0   MisRate:0.00%    MPKI:0.00
PC:2d846     Total:1      MisBP:0   MisRate:0.00%    MPKI:0.00
PC:2d848     Total:1      MisBP:0   MisRate:0.00%    MPKI:0.00
PC:2d84a     Total:1      MisBP:0   MisRate:0.00%    MPKI:0.00
PC:2d7a0     Total:1      MisBP:0   MisRate:0.00%    MPKI:0.00
PC:2c522     Total:71      MisBP:0   MisRate:0.00%    MPKI:0.00
PC:2c526     Total:71      MisBP:0   MisRate:0.00%    MPKI:0.00
PC:2c52a     Total:69      MisBP:0   MisRate:0.00%    MPKI:0.00
PC:2d794     Total:1      MisBP:0   MisRate:0.00%    MPKI:0.00
PC:2c52e     Total:69      MisBP:0   MisRate:0.00%    MPKI:0.00
PC:2d798     Total:1      MisBP:0   MisRate:0.00%    MPKI:0.00
PC:2c530     Total:69      MisBP:0   MisRate:0.00%    MPKI:0.00
PC:2d79a     Total:1      MisBP:0   MisRate:0.00%    MPKI:0.00
PC:2c532     Total:68      MisBP:0   MisRate:0.00%    MPKI:0.00
PC:2d79c     Total:1      MisBP:0   MisRate:0.00%    MPKI:0.00
PC:2c534     Total:68      MisBP:0   MisRate:0.00%    MPKI:0.00
PC:2d79e     Total:1      MisBP:0   MisRate:0.00%    MPKI:0.00
PC:2c536     Total:68      MisBP:0   MisRate:0.00%    MPKI:0.00
PC:2d78a     Total:4      MisBP:0   MisRate:0.00%    MPKI:0.00
PC:2d7a2     Total:1      MisBP:0   MisRate:0.00%    MPKI:0.00
PC:2c508     Total:9      MisBP:0   MisRate:0.00%    MPKI:0.00
PC:2d9e4     Total:682      MisBP:0   MisRate:0.00%    MPKI:0.00
PC:2d9e6     Total:682      MisBP:0   MisRate:0.00%    MPKI:0.00
PC:2d9e8     Total:668      MisBP:0   MisRate:0.00%    MPKI:0.00
PC:2d9ec     Total:667      MisBP:0   MisRate:0.00%    MPKI:0.00
PC:2d9f0     Total:101      MisBP:0   MisRate:0.00%    MPKI:0.00
PC:2d9f2     Total:101      MisBP:0   MisRate:0.00%    MPKI:0.00
PC:2d9f4     Total:101      MisBP:0   MisRate:0.00%    MPKI:0.00
PC:2d9f6     Total:100      MisBP:0   MisRate:0.00%    MPKI:0.00
PC:2d9f8     Total:100      MisBP:0   MisRate:0.00%    MPKI:0.00
PC:2d9fa     Total:100      MisBP:0   MisRate:0.00%    MPKI:0.00
PC:2d80a     Total:39      MisBP:0   MisRate:0.00%    MPKI:0.00
PC:2c55c     Total:4      MisBP:0   MisRate:0.00%    MPKI:0.00
PC:2c56a     Total:4      MisBP:0   MisRate:0.00%    MPKI:0.00
PC:2c56e     Total:4      MisBP:0   MisRate:0.00%    MPKI:0.00
PC:2c576     Total:4      MisBP:0   MisRate:0.00%    MPKI:0.00
PC:2c58c     Total:23      MisBP:0   MisRate:0.00%    MPKI:0.00
PC:2c590     Total:23      MisBP:0   MisRate:0.00%    MPKI:0.00
PC:2c594     Total:2      MisBP:0   MisRate:0.00%    MPKI:0.00
PC:2d7fe     Total:39      MisBP:0   MisRate:0.00%    MPKI:0.00
PC:2c596     Total:2      MisBP:0   MisRate:0.00%    MPKI:0.00
PC:2c59a     Total:2      MisBP:0   MisRate:0.00%    MPKI:0.00
PC:2c59c     Total:2      MisBP:0   MisRate:0.00%    MPKI:0.00
PC:2d806     Total:39      MisBP:0   MisRate:0.00%    MPKI:0.00
PC:2c5a0     Total:2      MisBP:0   MisRate:0.00%    MPKI:0.00
PC:2c4a4     Total:22      MisBP:0   MisRate:0.00%    MPKI:0.00
PC:2c5a2     Total:2      MisBP:0   MisRate:0.00%    MPKI:0.00
PC:2d80c     Total:2      MisBP:0   MisRate:0.00%    MPKI:0.00
PC:2c5a4     Total:2      MisBP:0   MisRate:0.00%    MPKI:0.00
PC:2d80e     Total:2      MisBP:0   MisRate:0.00%    MPKI:0.00
PC:2c50e     Total:71      MisBP:0   MisRate:0.00%    MPKI:0.00
PC:2c516     Total:71      MisBP:0   MisRate:0.00%    MPKI:0.00
PC:2d780     Total:4      MisBP:0   MisRate:0.00%    MPKI:0.00
PC:2c51a     Total:71      MisBP:0   MisRate:0.00%    MPKI:0.00
PC:2d784     Total:4      MisBP:0   MisRate:0.00%    MPKI:0.00
PC:2c51e     Total:71      MisBP:0   MisRate:0.00%    MPKI:0.00
PC:2d788     Total:4      MisBP:0   MisRate:0.00%    MPKI:0.00
PC:2c520     Total:71      MisBP:0   MisRate:0.00%    MPKI:0.00
PC:2d9ce     Total:1      MisBP:0   MisRate:0.00%    MPKI:0.00
PC:2d9ae     Total:26      MisBP:0   MisRate:0.00%    MPKI:0.00
PC:2d9b0     Total:99      MisBP:0   MisRate:0.00%    MPKI:0.00
PC:2d9b2     Total:99      MisBP:0   MisRate:0.00%    MPKI:0.00
PC:2d9b4     Total:99      MisBP:0   MisRate:0.00%    MPKI:0.00
PC:2d9b6     Total:99      MisBP:0   MisRate:0.00%    MPKI:0.00
PC:2d9b8     Total:99      MisBP:0   MisRate:0.00%    MPKI:0.00
PC:2d9bc     Total:97      MisBP:0   MisRate:0.00%    MPKI:0.00
PC:2d9be     Total:89      MisBP:0   MisRate:0.00%    MPKI:0.00
PC:2d9c2     Total:89      MisBP:0   MisRate:0.00%    MPKI:0.00
PC:2d9c4     Total:89      MisBP:0   MisRate:0.00%    MPKI:0.00
PC:2d9c6     Total:89      MisBP:0   MisRate:0.00%    MPKI:0.00
PC:2d9ca     Total:89      MisBP:0   MisRate:0.00%    MPKI:0.00
PC:2d9cc     Total:1      MisBP:0   MisRate:0.00%    MPKI:0.00
PC:2d9ac     Total:26      MisBP:0   MisRate:0.00%    MPKI:0.00
PC:2d9d0     Total:1      MisBP:0   MisRate:0.00%    MPKI:0.00
PC:2d9d2     Total:1      MisBP:0   MisRate:0.00%    MPKI:0.00
PC:2d9d4     Total:1      MisBP:0   MisRate:0.00%    MPKI:0.00
PC:2d9d6     Total:1      MisBP:0   MisRate:0.00%    MPKI:0.00
PC:2d9d8     Total:67      MisBP:0   MisRate:0.00%    MPKI:0.00
PC:2d9da     Total:67      MisBP:0   MisRate:0.00%    MPKI:0.00
PC:2d9dc     Total:67      MisBP:0   MisRate:0.00%    MPKI:0.00
PC:2d9e0     Total:67      MisBP:0   MisRate:0.00%    MPKI:0.00
PC:2d4c0     Total:58      MisBP:0   MisRate:0.00%    MPKI:0.00
PC:2d4c2     Total:58      MisBP:0   MisRate:0.00%    MPKI:0.00
PC:2d4c8     Total:1      MisBP:0   MisRate:0.00%    MPKI:0.00
PC:2d4cc     Total:1      MisBP:0   MisRate:0.00%    MPKI:0.00
PC:2d4ce     Total:1      MisBP:0   MisRate:0.00%    MPKI:0.00
PC:2d986     Total:71      MisBP:0   MisRate:0.00%    MPKI:0.00
PC:2cea8     Total:14      MisBP:0   MisRate:0.00%    MPKI:0.00
PC:2ceac     Total:14      MisBP:0   MisRate:0.00%    MPKI:0.00
PC:2ceae     Total:14      MisBP:0   MisRate:0.00%    MPKI:0.00
PC:2d6aa     Total:21      MisBP:0   MisRate:0.00%    MPKI:0.00
PC:2d6ae     Total:21      MisBP:0   MisRate:0.00%    MPKI:0.00
PC:2d6b4     Total:21      MisBP:0   MisRate:0.00%    MPKI:0.00
PC:2d6ba     Total:21      MisBP:0   MisRate:0.00%    MPKI:0.00
PC:2d7be     Total:932      MisBP:0   MisRate:0.00%    MPKI:0.00
PC:2c554     Total:4      MisBP:0   MisRate:0.00%    MPKI:0.00
PC:2d7c0     Total:840      MisBP:0   MisRate:0.00%    MPKI:0.00
PC:2c556     Total:4      MisBP:0   MisRate:0.00%    MPKI:0.00
PC:2d7c4     Total:838      MisBP:0   MisRate:0.00%    MPKI:0.00
PC:2c55a     Total:4      MisBP:0   MisRate:0.00%    MPKI:0.00
PC:2d4d0     Total:1      MisBP:0   MisRate:0.00%    MPKI:0.00
PC:2d988     Total:71      MisBP:0   MisRate:0.00%    MPKI:0.00
PC:2d98a     Total:71      MisBP:0   MisRate:0.00%    MPKI:0.00
PC:2d98c     Total:71      MisBP:0   MisRate:0.00%    MPKI:0.00
PC:2d990     Total:71      MisBP:0   MisRate:0.00%    MPKI:0.00
PC:2d994     Total:71      MisBP:0   MisRate:0.00%    MPKI:0.00
PC:2d998     Total:71      MisBP:0   MisRate:0.00%    MPKI:0.00
PC:2d99a     Total:71      MisBP:0   MisRate:0.00%    MPKI:0.00
PC:2d99e     Total:71      MisBP:0   MisRate:0.00%    MPKI:0.00
PC:2d9a0     Total:71      MisBP:0   MisRate:0.00%    MPKI:0.00
PC:2d9a2     Total:71      MisBP:0   MisRate:0.00%    MPKI:0.00
PC:2d9a4     Total:71      MisBP:0   MisRate:0.00%    MPKI:0.00
PC:2d9aa     Total:26      MisBP:0   MisRate:0.00%    MPKI:0.00
PC:2d6f0     Total:1      MisBP:0   MisRate:0.00%    MPKI:0.00
PC:2c474     Total:23      MisBP:0   MisRate:0.00%    MPKI:0.00
PC:2d6de     Total:2      MisBP:0   MisRate:0.00%    MPKI:0.00
PC:2c478     Total:230      MisBP:0   MisRate:0.00%    MPKI:0.00
PC:2d6e2     Total:2      MisBP:0   MisRate:0.00%    MPKI:0.00
PC:2c47c     Total:23      MisBP:0   MisRate:0.00%    MPKI:0.00
PC:2d6e6     Total:1      MisBP:0   MisRate:0.00%    MPKI:0.00
PC:2c480     Total:22      MisBP:0   MisRate:0.00%    MPKI:0.00
PC:2d6ea     Total:1      MisBP:0   MisRate:0.00%    MPKI:0.00
PC:2c482     Total:22      MisBP:0   MisRate:0.00%    MPKI:0.00
PC:2d6ec     Total:1      MisBP:0   MisRate:0.00%    MPKI:0.00
PC:2c484     Total:22      MisBP:0   MisRate:0.00%    MPKI:0.00
PC:2d6ee     Total:1      MisBP:0   MisRate:0.00%    MPKI:0.00
PC:2c486     Total:22      MisBP:0   MisRate:0.00%    MPKI:0.00
PC:2d83e     Total:2      MisBP:0   MisRate:0.00%    MPKI:0.00
PC:2c48a     Total:22      MisBP:0   MisRate:0.00%    MPKI:0.00
PC:2d6f4     Total:1      MisBP:0   MisRate:0.00%    MPKI:0.00
PC:2c48c     Total:22      MisBP:0   MisRate:0.00%    MPKI:0.00
PC:2d6f6     Total:1      MisBP:0   MisRate:0.00%    MPKI:0.00
PC:2c48e     Total:22      MisBP:0   MisRate:0.00%    MPKI:0.00
PC:2c492     Total:22      MisBP:0   MisRate:0.00%    MPKI:0.00
PC:2d6fc     Total:1      MisBP:0   MisRate:0.00%    MPKI:0.00
PC:2c496     Total:22      MisBP:0   MisRate:0.00%    MPKI:0.00
PC:2c498     Total:22      MisBP:0   MisRate:0.00%    MPKI:0.00
PC:2c49c     Total:22      MisBP:0   MisRate:0.00%    MPKI:0.00
PC:2c49e     Total:22      MisBP:0   MisRate:0.00%    MPKI:0.00
PC:2c4a0     Total:22      MisBP:0   MisRate:0.00%    MPKI:0.00
PC:2d5ee     Total:58      MisBP:0   MisRate:0.00%    MPKI:0.00
PC:2d4d4     Total:1      MisBP:0   MisRate:0.00%    MPKI:0.00
PC:2d4d6     Total:1      MisBP:0   MisRate:0.00%    MPKI:0.00
PC:2d4d8     Total:59      MisBP:0   MisRate:0.00%    MPKI:0.00
PC:2d4dc     Total:59      MisBP:0   MisRate:0.00%    MPKI:0.00
PC:2d4de     Total:59      MisBP:0   MisRate:0.00%    MPKI:0.00
PC:2d4e2     Total:59      MisBP:0   MisRate:0.00%    MPKI:0.00
PC:2d4e4     Total:59      MisBP:0   MisRate:0.00%    MPKI:0.00
PC:2d4e8     Total:59      MisBP:0   MisRate:0.00%    MPKI:0.00
PC:2d4ea     Total:59      MisBP:0   MisRate:0.00%    MPKI:0.00
PC:2d4ec     Total:59      MisBP:0   MisRate:0.00%    MPKI:0.00
PC:2d5e6     Total:58      MisBP:0   MisRate:0.00%    MPKI:0.00
PC:2d5e8     Total:58      MisBP:0   MisRate:0.00%    MPKI:0.00
PC:2d5ea     Total:58      MisBP:0   MisRate:0.00%    MPKI:0.00
PC:2d9fc     Total:100      MisBP:0   MisRate:0.00%    MPKI:0.00
PC:2d5f0     Total:58      MisBP:0   MisRate:0.00%    MPKI:0.00
PC:2d5f2     Total:1      MisBP:0   MisRate:0.00%    MPKI:0.00
PC:2d5f6     Total:1      MisBP:0   MisRate:0.00%    MPKI:0.00
PC:2d5f8     Total:1      MisBP:0   MisRate:0.00%    MPKI:0.00
PC:2d5fa     Total:1      MisBP:0   MisRate:0.00%    MPKI:0.00
PC:2d5fc     Total:1      MisBP:0   MisRate:0.00%    MPKI:0.00
PC:2d5fe     Total:1      MisBP:0   MisRate:0.00%    MPKI:0.00
PC:2d830     Total:20      MisBP:0   MisRate:0.00%    MPKI:0.00
PC:2d832     Total:20      MisBP:0   MisRate:0.00%    MPKI:0.00
PC:2d836     Total:49      MisBP:0   MisRate:0.00%    MPKI:0.00
PC:2d838     Total:2      MisBP:0   MisRate:0.00%    MPKI:0.00
PC:2d83c     Total:2      MisBP:0   MisRate:0.00%    MPKI:0.00
PC:2cebe     Total:13      MisBP:0   MisRate:0.00%    MPKI:0.00
PC:31ca0     Total:25      MisBP:0   MisRate:0.00%    MPKI:0.00
PC:31ca4     Total:24      MisBP:0   MisRate:0.00%    MPKI:0.00
PC:31ca8     Total:24      MisBP:0   MisRate:0.00%    MPKI:0.00
PC:31cac     Total:23      MisBP:0   MisRate:0.00%    MPKI:0.00
PC:31cb0     Total:46      MisBP:0   MisRate:0.00%    MPKI:0.00
PC:31cb4     Total:23      MisBP:0   MisRate:0.00%    MPKI:0.00
PC:31cb8     Total:23      MisBP:0   MisRate:0.00%    MPKI:0.00
PC:2c338     Total:31      MisBP:0   MisRate:0.00%    MPKI:0.00
PC:2ceb2     Total:13      MisBP:0   MisRate:0.00%    MPKI:0.00
PC:2ceb6     Total:13      MisBP:0   MisRate:0.00%    MPKI:0.00
PC:2ceb8     Total:13      MisBP:0   MisRate:0.00%    MPKI:0.00
PC:2ceba     Total:13      MisBP:0   MisRate:0.00%    MPKI:0.00
PC:2cebc     Total:13      MisBP:0   MisRate:0.00%    MPKI:0.00
PC:2d6fe     Total:1      MisBP:0   MisRate:0.00%    MPKI:0.00
PC:31cbc     Total:22      MisBP:0   MisRate:0.00%    MPKI:0.00
PC:2cec0     Total:12      MisBP:0   MisRate:0.00%    MPKI:0.00
PC:2ced0     Total:12      MisBP:0   MisRate:0.00%    MPKI:0.00
PC:2ced2     Total:11      MisBP:0   MisRate:0.00%    MPKI:0.00
PC:31cc0     Total:19      MisBP:0   MisRate:0.00%    MPKI:0.00
PC:31cc4     Total:19      MisBP:0   MisRate:0.00%    MPKI:0.00
PC:31cc8     Total:19      MisBP:0   MisRate:0.00%    MPKI:0.00
PC:31ccc     Total:19      MisBP:0   MisRate:0.00%    MPKI:0.00
PC:31cd0     Total:57      MisBP:0   MisRate:0.00%    MPKI:0.00
PC:31cd4     Total:19      MisBP:0   MisRate:0.00%    MPKI:0.00
PC:31cd8     Total:54      MisBP:0   MisRate:0.00%    MPKI:0.00
PC:31cdc     Total:18      MisBP:0   MisRate:0.00%    MPKI:0.00
PC:31ce0     Total:54      MisBP:0   MisRate:0.00%    MPKI:0.00
PC:2d824     Total:2      MisBP:0   MisRate:0.00%    MPKI:0.00
PC:2cd96     Total:48      MisBP:0   MisRate:0.00%    MPKI:0.00
PC:2cd98     Total:48      MisBP:0   MisRate:0.00%    MPKI:0.00
PC:2cda0     Total:3      MisBP:0   MisRate:0.00%    MPKI:0.00
PC:2cda4     Total:3      MisBP:0   MisRate:0.00%    MPKI:0.00
PC:2cda6     Total:3      MisBP:0   MisRate:0.00%    MPKI:0.00
PC:2cdaa     Total:3      MisBP:0   MisRate:0.00%    MPKI:0.00
PC:2ce00     Total:1      MisBP:0   MisRate:0.00%    MPKI:0.00
PC:2ce02     Total:1      MisBP:0   MisRate:0.00%    MPKI:0.00
PC:2ce06     Total:1      MisBP:0   MisRate:0.00%    MPKI:0.00
PC:2ce0a     Total:1      MisBP:0   MisRate:0.00%    MPKI:0.00
PC:2ce0c     Total:1      MisBP:0   MisRate:0.00%    MPKI:0.00
PC:2d802     Total:39      MisBP:0   MisRate:0.00%    MPKI:0.00
PC:2d822     Total:2      MisBP:0   MisRate:0.00%    MPKI:0.00
PC:31ce4     Total:18      MisBP:0   MisRate:0.00%    MPKI:0.00
PC:2d826     Total:14      MisBP:0   MisRate:0.00%    MPKI:0.00
PC:2c328     Total:36      MisBP:0   MisRate:0.00%    MPKI:0.00
PC:2d6c0     Total:20      MisBP:0   MisRate:0.00%    MPKI:0.00
PC:2d6c8     Total:20      MisBP:0   MisRate:0.00%    MPKI:0.00
PC:2d6cc     Total:20      MisBP:0   MisRate:0.00%    MPKI:0.00
PC:2d6d0     Total:20      MisBP:0   MisRate:0.00%    MPKI:0.00
PC:2d6da     Total:2      MisBP:0   MisRate:0.00%    MPKI:0.00
PC:2d6dc     Total:2      MisBP:0   MisRate:0.00%    MPKI:0.00
PC:2d6e0     Total:2      MisBP:0   MisRate:0.00%    MPKI:0.00
PC:2d6e4     Total:2      MisBP:0   MisRate:0.00%    MPKI:0.00
PC:2d6f2     Total:1      MisBP:0   MisRate:0.00%    MPKI:0.00
PC:2d6fa     Total:1      MisBP:0   MisRate:0.00%    MPKI:0.00
PC:2cee6     Total:1      MisBP:0   MisRate:0.00%    MPKI:0.00
PC:2ddde     Total:1      MisBP:0   MisRate:0.00%    MPKI:0.00
PC:2dde2     Total:1      MisBP:0   MisRate:0.00%    MPKI:0.00
PC:2dde4     Total:1      MisBP:0   MisRate:0.00%    MPKI:0.00
PC:2dde8     Total:1      MisBP:0   MisRate:0.00%    MPKI:0.00
PC:2ddea     Total:1      MisBP:0   MisRate:0.00%    MPKI:0.00
PC:2ddee     Total:1      MisBP:0   MisRate:0.00%    MPKI:0.00
PC:2ddf0     Total:1      MisBP:0   MisRate:0.00%    MPKI:0.00
PC:2ddf2     Total:1      MisBP:0   MisRate:0.00%    MPKI:0.00
PC:2ced6     Total:1      MisBP:0   MisRate:0.00%    MPKI:0.00
PC:2ceda     Total:1      MisBP:0   MisRate:0.00%    MPKI:0.00
PC:2cede     Total:1      MisBP:0   MisRate:0.00%    MPKI:0.00
PC:2cee0     Total:1      MisBP:0   MisRate:0.00%    MPKI:0.00
PC:2cee4     Total:1      MisBP:0   MisRate:0.00%    MPKI:0.00
PC:2ddda     Total:1      MisBP:0   MisRate:0.00%    MPKI:0.00
PC:2cee8     Total:1      MisBP:0   MisRate:0.00%    MPKI:0.00
PC:2ceea     Total:1      MisBP:0   MisRate:0.00%    MPKI:0.00
PC:2ceec     Total:1      MisBP:0   MisRate:0.00%    MPKI:0.00
PC:2cef0     Total:1      MisBP:0   MisRate:0.00%    MPKI:0.00
PC:31d14     Total:3      MisBP:0   MisRate:0.00%    MPKI:0.00
PC:31d18     Total:3      MisBP:0   MisRate:0.00%    MPKI:0.00
PC:2cac2     Total:1      MisBP:0   MisRate:0.00%    MPKI:0.00
PC:2cade     Total:1      MisBP:0   MisRate:0.00%    MPKI:0.00
PC:2cae2     Total:1      MisBP:0   MisRate:0.00%    MPKI:0.00
PC:2caea     Total:1      MisBP:0   MisRate:0.00%    MPKI:0.00
PC:2caee     Total:1      MisBP:0   MisRate:0.00%    MPKI:0.00
PC:2caf2     Total:1      MisBP:0   MisRate:0.00%    MPKI:0.00
PC:2d792     Total:1      MisBP:0   MisRate:0.00%    MPKI:0.00
PC:31ce8     Total:51      MisBP:0   MisRate:0.00%    MPKI:0.00
PC:31cec     Total:17      MisBP:0   MisRate:0.00%    MPKI:0.00
PC:31cf0     Total:17      MisBP:0   MisRate:0.00%    MPKI:0.00
PC:31cf4     Total:17      MisBP:0   MisRate:0.00%    MPKI:0.00
PC:31cf8     Total:34      MisBP:0   MisRate:0.00%    MPKI:0.00
PC:31cfc     Total:15      MisBP:0   MisRate:0.00%    MPKI:0.00
PC:31d00     Total:28      MisBP:0   MisRate:0.00%    MPKI:0.00
PC:31d04     Total:14      MisBP:0   MisRate:0.00%    MPKI:0.00
PC:31d08     Total:28      MisBP:0   MisRate:0.00%    MPKI:0.00
PC:31d0c     Total:14      MisBP:0   MisRate:0.00%    MPKI:0.00
PC:31d10     Total:28      MisBP:0   MisRate:0.00%    MPKI:0.00
PC:2d782     Total:4      MisBP:0   MisRate:0.00%    MPKI:0.00
PC:2d78e     Total:1      MisBP:0   MisRate:0.00%    MPKI:0.00
PC:2cd94     Total:48      MisBP:0   MisRate:0.00%    MPKI:0.00
PC:2d796     Total:1      MisBP:0   MisRate:0.00%    MPKI:0.00
PC:2ddae     Total:1      MisBP:0   MisRate:0.00%    MPKI:0.00
PC:2ddb2     Total:1      MisBP:0   MisRate:0.00%    MPKI:0.00
PC:2ddb6     Total:1      MisBP:0   MisRate:0.00%    MPKI:0.00
PC:2ddba     Total:1      MisBP:0   MisRate:0.00%    MPKI:0.00
PC:2ddbe     Total:1      MisBP:0   MisRate:0.00%    MPKI:0.00
PC:2ddc2     Total:1      MisBP:0   MisRate:0.00%    MPKI:0.00
PC:2ddc6     Total:1      MisBP:0   MisRate:0.00%    MPKI:0.00
PC:2ddca     Total:1      MisBP:0   MisRate:0.00%    MPKI:0.00
PC:2ddce     Total:1      MisBP:0   MisRate:0.00%    MPKI:0.00
PC:2ddd2     Total:1      MisBP:0   MisRate:0.00%    MPKI:0.00
PC:2ddd6     Total:1      MisBP:0   MisRate:0.00%    MPKI:0.00
PC:2e0d0     Total:1      MisBP:0   MisRate:0.00%    MPKI:0.00
PC:2e0b0     Total:21      MisBP:0   MisRate:0.00%    MPKI:0.00
PC:2e0b2     Total:21      MisBP:0   MisRate:0.00%    MPKI:0.00
PC:2e0b4     Total:21      MisBP:0   MisRate:0.00%    MPKI:0.00
PC:2e0b6     Total:23      MisBP:0   MisRate:0.00%    MPKI:0.00
PC:2e0b8     Total:23      MisBP:0   MisRate:0.00%    MPKI:0.00
PC:2e0ba     Total:23      MisBP:0   MisRate:0.00%    MPKI:0.00
PC:2e0be     Total:23      MisBP:0   MisRate:0.00%    MPKI:0.00
PC:2e0c0     Total:23      MisBP:0   MisRate:0.00%    MPKI:0.00
PC:2e0c4     Total:23      MisBP:0   MisRate:0.00%    MPKI:0.00
PC:2e0c6     Total:23      MisBP:0   MisRate:0.00%    MPKI:0.00
PC:2e0ca     Total:23      MisBP:0   MisRate:0.00%    MPKI:0.00
PC:2e0cc     Total:23      MisBP:0   MisRate:0.00%    MPKI:0.00
PC:2e0ce     Total:1      MisBP:0   MisRate:0.00%    MPKI:0.00
PC:2e0ae     Total:21      MisBP:0   MisRate:0.00%    MPKI:0.00
[...]
PC:2d444     Total:940      MisBP:0   MisRate:0.00%    MPKI:0.00
PC:14e62     Total:749      MisBP:0   MisRate:0.00%    MPKI:0.00
PC:2d446     Total:940      MisBP:0   MisRate:0.00%    MPKI:0.00
PC:14e64     Total:743      MisBP:0   MisRate:0.00%    MPKI:0.00
PC:14e66     Total:741      MisBP:0   MisRate:0.00%    MPKI:0.00
PC:2d552     Total:1568      MisBP:0   MisRate:0.00%    MPKI:0.00
PC:14f70     Total:751      MisBP:0   MisRate:0.00%    MPKI:0.00
PC:2d556     Total:1542      MisBP:0   MisRate:0.00%    MPKI:0.00
PC:14f78     Total:875      MisBP:0   MisRate:0.00%    MPKI:0.00
PC:2d55e     Total:1996      MisBP:0   MisRate:0.00%    MPKI:0.00
PC:2d6a4     Total:21      MisBP:0   MisRate:0.00%    MPKI:0.00
PC:14f94     Total:11      MisBP:0   MisRate:0.00%    MPKI:0.00
PC:2d578     Total:1788      MisBP:0   MisRate:0.00%    MPKI:0.00
PC:10a46     Total:16359      MisBP:0   MisRate:0.00%    MPKI:0.00
PC:2d6a0     Total:21      MisBP:0   MisRate:0.00%    MPKI:0.00
PC:12cee     Total:1253      MisBP:0   MisRate:0.00%    MPKI:0.00
PC:14f96     Total:11      MisBP:0   MisRate:0.00%    MPKI:0.00
PC:2d57a     Total:1785      MisBP:0   MisRate:0.00%    MPKI:0.00
PC:10a48     Total:16359      MisBP:0   MisRate:0.00%    MPKI:0.00
PC:12cf0     Total:1253      MisBP:0   MisRate:0.00%    MPKI:0.00
PC:2d476     Total:866      MisBP:0   MisRate:0.00%    MPKI:0.00
PC:14f98     Total:11      MisBP:0   MisRate:0.00%    MPKI:0.00
PC:10a4a     Total:16359      MisBP:0   MisRate:0.00%    MPKI:0.00
PC:2cea4     Total:18      MisBP:0   MisRate:0.00%    MPKI:0.00
PC:12cf2     Total:1253      MisBP:0   MisRate:0.00%    MPKI:0.00
PC:14f9a     Total:11      MisBP:0   MisRate:0.00%    MPKI:0.00
PC:2d580     Total:1764      MisBP:0   MisRate:0.00%    MPKI:0.00
PC:2c42c     Total:3      MisBP:0   MisRate:0.00%    MPKI:0.00
PC:2d696     Total:21      MisBP:0   MisRate:0.00%    MPKI:0.00
PC:10a4e     Total:6536      MisBP:0   MisRate:0.00%    MPKI:0.00
PC:2d6a8     Total:21      MisBP:0   MisRate:0.00%    MPKI:0.00
PC:12cf6     Total:1253      MisBP:0   MisRate:0.00%    MPKI:0.00
PC:2d47c     Total:866      MisBP:0   MisRate:0.00%    MPKI:0.00
PC:14f9e     Total:9      MisBP:0   MisRate:0.00%    MPKI:0.00
PC:2d582     Total:1759      MisBP:0   MisRate:0.00%    MPKI:0.00
PC:2ef80     Total:1134      MisBP:0   MisRate:0.00%    MPKI:0.00
PC:14f48     Total:1      MisBP:0   MisRate:0.00%    MPKI:0.00
PC:2d938     Total:1      MisBP:0   MisRate:0.00%    MPKI:0.00
PC:2d934     Total:1      MisBP:0   MisRate:0.00%    MPKI:0.00
PC:2ef22     Total:539      MisBP:0   MisRate:0.00%    MPKI:0.00
PC:109f2     Total:7453      MisBP:0   MisRate:0.00%    MPKI:0.00
PC:2d64c     Total:2      MisBP:0   MisRate:0.00%    MPKI:0.00
PC:14f42     Total:1      MisBP:0   MisRate:0.00%    MPKI:0.00
PC:2d930     Total:1      MisBP:0   MisRate:0.00%    MPKI:0.00
PC:14f46     Total:1      MisBP:0   MisRate:0.00%    MPKI:0.00
PC:2d52a     Total:1541      MisBP:0   MisRate:0.00%    MPKI:0.00
PC:2c3d6     Total:33      MisBP:0   MisRate:0.00%    MPKI:0.00
PC:2d640     Total:86      MisBP:0   MisRate:0.00%    MPKI:0.00
PC:2d63a     Total:90      MisBP:0   MisRate:0.00%    MPKI:0.00
PC:2d7da     Total:48      MisBP:0   MisRate:0.00%    MPKI:0.00
PC:2d7dc     Total:48      MisBP:0   MisRate:0.00%    MPKI:0.00
PC:2c572     Total:4      MisBP:0   MisRate:0.00%    MPKI:0.00
PC:2d7de     Total:48      MisBP:0   MisRate:0.00%    MPKI:0.00
PC:2d92c     Total:1      MisBP:0   MisRate:0.00%    MPKI:0.00
PC:2d928     Total:1      MisBP:0   MisRate:0.00%    MPKI:0.00
PC:2d924     Total:1      MisBP:0   MisRate:0.00%    MPKI:0.00
PC:2c574     Total:4      MisBP:0   MisRate:0.00%    MPKI:0.00
PC:2d7e2     Total:47      MisBP:0   MisRate:0.00%    MPKI:0.00
PC:2c578     Total:4      MisBP:0   MisRate:0.00%    MPKI:0.00
PC:2d7e4     Total:1      MisBP:0   MisRate:0.00%    MPKI:0.00
PC:14f38     Total:47990      MisBP:0   MisRate:0.00%    MPKI:0.00
PC:2d516     Total:438      MisBP:0   MisRate:0.00%    MPKI:0.00
PC:2c970     Total:24      MisBP:0   MisRate:0.00%    MPKI:0.00
PC:2cc6c     Total:9598      MisBP:0   MisRate:0.00%    MPKI:0.00
PC:2c96e     Total:24      MisBP:0   MisRate:0.00%    MPKI:0.00
PC:2c3c2     Total:33      MisBP:0   MisRate:0.00%    MPKI:0.00
PC:2d62c     Total:83      MisBP:0   MisRate:0.00%    MPKI:0.00
PC:14f34     Total:48037      MisBP:0   MisRate:0.00%    MPKI:0.00
PC:2d51a     Total:438      MisBP:0   MisRate:0.00%    MPKI:0.00
PC:2cc70     Total:9598      MisBP:0   MisRate:0.00%    MPKI:0.00
PC:2c3c6     Total:33      MisBP:0   MisRate:0.00%    MPKI:0.00
PC:2d630     Total:82      MisBP:0   MisRate:0.00%    MPKI:0.00
PC:2c57a     Total:70      MisBP:0   MisRate:0.00%    MPKI:0.00
PC:2cc74     Total:9598      MisBP:0   MisRate:0.00%    MPKI:0.00
PC:2c96a     Total:24      MisBP:0   MisRate:0.00%    MPKI:0.00
PC:14f3c     Total:47981      MisBP:0   MisRate:0.00%    MPKI:0.00
PC:2c3ce     Total:33      MisBP:0   MisRate:0.00%    MPKI:0.00
PC:2d638     Total:80      MisBP:0   MisRate:0.00%    MPKI:0.00
PC:14f40     Total:47172      MisBP:0   MisRate:0.00%    MPKI:0.00
PC:2d524     Total:438      MisBP:0   MisRate:0.00%    MPKI:0.00
PC:2cc7a     Total:1      MisBP:0   MisRate:0.00%    MPKI:0.00
PC:2c968     Total:31      MisBP:0   MisRate:0.00%    MPKI:0.00
PC:2c3d0     Total:33      MisBP:0   MisRate:0.00%    MPKI:0.00
PC:2d8da     Total:198      MisBP:0   MisRate:0.00%    MPKI:0.00
PC:2d910     Total:1      MisBP:0   MisRate:0.00%    MPKI:0.00
PC:2d90e     Total:198      MisBP:0   MisRate:0.00%    MPKI:0.00
PC:2d90a     Total:198      MisBP:0   MisRate:0.00%    MPKI:0.00
PC:2d8ca     Total:199      MisBP:0   MisRate:0.00%    MPKI:0.00
PC:2d8cc     Total:199      MisBP:0   MisRate:0.00%    MPKI:0.00
PC:2d8ce     Total:199      MisBP:0   MisRate:0.00%    MPKI:0.00
PC:2d8d2     Total:199      MisBP:0   MisRate:0.00%    MPKI:0.00
PC:2d906     Total:200      MisBP:0   MisRate:0.00%    MPKI:0.00
PC:2d8d4     Total:199      MisBP:0   MisRate:0.00%    MPKI:0.00
PC:2d8d6     Total:198      MisBP:0   MisRate:0.00%    MPKI:0.00
PC:2d902     Total:200      MisBP:0   MisRate:0.00%    MPKI:0.00
PC:2d8c8     Total:199      MisBP:0   MisRate:0.00%    MPKI:0.00
PC:2d8de     Total:198      MisBP:0   MisRate:0.00%    MPKI:0.00
PC:2d8e0     Total:198      MisBP:0   MisRate:0.00%    MPKI:0.00
PC:2d8fe     Total:200      MisBP:0   MisRate:0.00%    MPKI:0.00
PC:2d8e4     Total:11      MisBP:0   MisRate:0.00%    MPKI:0.00
PC:2d8e6     Total:11      MisBP:0   MisRate:0.00%    MPKI:0.00
PC:2d8e8     Total:11      MisBP:0   MisRate:0.00%    MPKI:0.00
PC:2d8ec     Total:203      MisBP:0   MisRate:0.00%    MPKI:0.00
PC:2d8f0     Total:203      MisBP:0   MisRate:0.00%    MPKI:0.00
PC:2d8fc     Total:232      MisBP:0   MisRate:0.00%    MPKI:0.00
PC:2d8f4     Total:203      MisBP:0   MisRate:0.00%    MPKI:0.00
PC:2d8fa     Total:232      MisBP:0   MisRate:0.00%    MPKI:0.00
PC:2d918     Total:1      MisBP:0   MisRate:0.00%    MPKI:0.00
PC:2d7e8     Total:1      MisBP:0   MisRate:0.00%    MPKI:0.00
PC:2c57e     Total:70      MisBP:0   MisRate:0.00%    MPKI:0.00
PC:2d7ea     Total:1      MisBP:0   MisRate:0.00%    MPKI:0.00
PC:2d920     Total:1      MisBP:0   MisRate:0.00%    MPKI:0.00
PC:2c580     Total:70      MisBP:0   MisRate:0.00%    MPKI:0.00
PC:2d7ec     Total:1      MisBP:0   MisRate:0.00%    MPKI:0.00
PC:2c582     Total:70      MisBP:0   MisRate:0.00%    MPKI:0.00
PC:2d91c     Total:1      MisBP:0   MisRate:0.00%    MPKI:0.00
PC:2d7ee     Total:41      MisBP:0   MisRate:0.00%    MPKI:0.00
PC:2c584     Total:70      MisBP:0   MisRate:0.00%    MPKI:0.00
PC:2d7f0     Total:41      MisBP:0   MisRate:0.00%    MPKI:0.00
PC:14f30     Total:48041      MisBP:0   MisRate:0.00%    MPKI:0.00
PC:2c586     Total:70      MisBP:0   MisRate:0.00%    MPKI:0.00
PC:2d7f4     Total:41      MisBP:0   MisRate:0.00%    MPKI:0.00
PC:2c58a     Total:23      MisBP:0   MisRate:0.00%    MPKI:0.00
PC:2d7f8     Total:41      MisBP:0   MisRate:0.00%    MPKI:0.00
PC:2d7fc     Total:41      MisBP:0   MisRate:0.00%    MPKI:0.00
PC:2c592     Total:21      MisBP:0   MisRate:0.00%    MPKI:0.00
PC:2d8be     Total:199      MisBP:0   MisRate:0.00%    MPKI:0.00
PC:2d8c2     Total:199      MisBP:0   MisRate:0.00%    MPKI:0.00
PC:2d914     Total:1      MisBP:0   MisRate:0.00%    MPKI:0.00
PC:2d8c4     Total:199      MisBP:0   MisRate:0.00%    MPKI:0.00
PC:14e7e     Total:63043      MisBP:0   MisRate:0.00%    MPKI:0.00
PC:2ce90     Total:29      MisBP:0   MisRate:0.00%    MPKI:0.00
PC:14e72     Total:740      MisBP:0   MisRate:0.00%    MPKI:0.00
PC:2ce8e     Total:29      MisBP:0   MisRate:0.00%    MPKI:0.00
PC:14e74     Total:740      MisBP:0   MisRate:0.00%    MPKI:0.00
PC:2d458     Total:873      MisBP:0   MisRate:0.00%    MPKI:0.00
PC:14e76     Total:66600      MisBP:0   MisRate:0.00%    MPKI:0.00
PC:2d45a     Total:873      MisBP:0   MisRate:0.00%    MPKI:0.00
PC:14e78     Total:66599      MisBP:0   MisRate:0.00%    MPKI:0.00
PC:2d45c     Total:873      MisBP:0   MisRate:0.00%    MPKI:0.00
PC:2ce8c     Total:29      MisBP:0   MisRate:0.00%    MPKI:0.00
PC:14e7a     Total:66591      MisBP:0   MisRate:0.00%    MPKI:0.00
PC:2ce92     Total:29      MisBP:0   MisRate:0.00%    MPKI:0.00
PC:2ce88     Total:29      MisBP:0   MisRate:0.00%    MPKI:0.00
PC:14e82     Total:63025      MisBP:0   MisRate:0.00%    MPKI:0.00
PC:2ce84     Total:29      MisBP:0   MisRate:0.00%    MPKI:0.00
PC:2d468     Total:873      MisBP:0   MisRate:0.00%    MPKI:0.00
PC:14e86     Total:63023      MisBP:0   MisRate:0.00%    MPKI:0.00
PC:14e88     Total:543572      MisBP:0   MisRate:0.00%    MPKI:0.00
PC:2ce80     Total:29      MisBP:0   MisRate:0.00%    MPKI:0.00
PC:14e8c     Total:1190892      MisBP:0   MisRate:0.00%    MPKI:0.00
PC:14e90     Total:594316      MisBP:0   MisRate:0.00%    MPKI:0.00
PC:2cd88     Total:4232      MisBP:0   MisRate:0.00%    MPKI:0.00
PC:2c974     Total:49      MisBP:0   MisRate:0.00%    MPKI:0.00
PC:2d428     Total:8152      MisBP:0   MisRate:0.00%    MPKI:0.00
PC:14e42     Total:784      MisBP:0   MisRate:0.00%    MPKI:0.00
PC:2d424     Total:1167      MisBP:0   MisRate:0.00%    MPKI:0.00
PC:2cea6     Total:18      MisBP:0   MisRate:0.00%    MPKI:0.00
PC:2d52e     Total:1539      MisBP:0   MisRate:0.00%    MPKI:0.00
PC:2c3da     Total:33      MisBP:0   MisRate:0.00%    MPKI:0.00
PC:2d644     Total:2      MisBP:0   MisRate:0.00%    MPKI:0.00
PC:14f4c     Total:7      MisBP:0   MisRate:0.00%    MPKI:0.00
PC:14e44     Total:784      MisBP:0   MisRate:0.00%    MPKI:0.00
PC:2d426     Total:1167      MisBP:0   MisRate:0.00%    MPKI:0.00
PC:14e46     Total:784      MisBP:0   MisRate:0.00%    MPKI:0.00
PC:2cea0     Total:18      MisBP:0   MisRate:0.00%    MPKI:0.00
PC:14e92     Total:594224      MisBP:0   MisRate:0.00%    MPKI:0.00
PC:2d44c     Total:940      MisBP:0   MisRate:0.00%    MPKI:0.00
PC:14e6a     Total:740      MisBP:0   MisRate:0.00%    MPKI:0.00
PC:2ce9c     Total:18      MisBP:0   MisRate:0.00%    MPKI:0.00
PC:14e6e     Total:740      MisBP:0   MisRate:0.00%    MPKI:0.00
PC:2d452     Total:873      MisBP:0   MisRate:0.00%    MPKI:0.00
PC:2ce9a     Total:18      MisBP:0   MisRate:0.00%    MPKI:0.00
PC:14e70     Total:740      MisBP:0   MisRate:0.00%    MPKI:0.00
PC:2d454     Total:873      MisBP:0   MisRate:0.00%    MPKI:0.00
PC:2ce98     Total:29      MisBP:0   MisRate:0.00%    MPKI:0.00
PC:2ce94     Total:29      MisBP:0   MisRate:0.00%    MPKI:0.00
PC:2d40a     Total:10      MisBP:0   MisRate:0.00%    MPKI:0.00
PC:2cc58     Total:10181      MisBP:0   MisRate:0.00%    MPKI:0.00
PC:14f20     Total:48635      MisBP:0   MisRate:0.00%    MPKI:0.00
PC:2d508     Total:416      MisBP:0   MisRate:0.00%    MPKI:0.00
PC:2cc5e     Total:10181      MisBP:0   MisRate:0.00%    MPKI:0.00
PC:2c3b4     Total:36      MisBP:0   MisRate:0.00%    MPKI:0.00
PC:2c3be     Total:34      MisBP:0   MisRate:0.00%    MPKI:0.00
PC:22e52     Total:201      MisBP:0   MisRate:0.00%    MPKI:0.00
PC:2d61e     Total:1119      MisBP:0   MisRate:0.00%    MPKI:0.00
PC:14f26     Total:48618      MisBP:0   MisRate:0.00%    MPKI:0.00
PC:2d50c     Total:419      MisBP:0   MisRate:0.00%    MPKI:0.00
PC:2d502     Total:417      MisBP:0   MisRate:0.00%    MPKI:0.00
PC:2d512     Total:419      MisBP:0   MisRate:0.00%    MPKI:0.00
PC:2c978     Total:49      MisBP:0   MisRate:0.00%    MPKI:0.00
PC:2c3b8     Total:36      MisBP:0   MisRate:0.00%    MPKI:0.00
PC:2d622     Total:1078      MisBP:0   MisRate:0.00%    MPKI:0.00
PC:14f2a     Total:48595      MisBP:0   MisRate:0.00%    MPKI:0.00
PC:22e50     Total:603      MisBP:0   MisRate:0.00%    MPKI:0.00
PC:2d510     Total:419      MisBP:0   MisRate:0.00%    MPKI:0.00
PC:2c97a     Total:47      MisBP:0   MisRate:0.00%    MPKI:0.00
PC:2cc66     Total:10178      MisBP:0   MisRate:0.00%    MPKI:0.00
PC:14f2e     Total:48569      MisBP:0   MisRate:0.00%    MPKI:0.00
PC:14ea0     Total:12684      MisBP:0   MisRate:0.00%    MPKI:0.00
PC:2cd86     Total:646      MisBP:0   MisRate:0.00%    MPKI:0.00
PC:14e96     Total:592381      MisBP:0   MisRate:0.00%    MPKI:0.00
PC:2cd82     Total:352      MisBP:0   MisRate:0.00%    MPKI:0.00
PC:14e98     Total:560944      MisBP:0   MisRate:0.00%    MPKI:0.00
PC:2cd80     Total:352      MisBP:0   MisRate:0.00%    MPKI:0.00
PC:2d410     Total:10      MisBP:0   MisRate:0.00%    MPKI:0.00
PC:14e9c     Total:58078      MisBP:0   MisRate:0.00%    MPKI:0.00
PC:2d480     Total:11      MisBP:0   MisRate:0.00%    MPKI:0.00
PC:22e56     Total:603      MisBP:0   MisRate:0.00%    MPKI:0.00
PC:14ea4     Total:12683      MisBP:0   MisRate:0.00%    MPKI:0.00
PC:2d40e     Total:10      MisBP:0   MisRate:0.00%    MPKI:0.00
PC:2d488     Total:1191      MisBP:0   MisRate:0.00%    MPKI:0.00
PC:14ea6     Total:12679      MisBP:0   MisRate:0.00%    MPKI:0.00
PC:22e54     Total:201      MisBP:0   MisRate:0.00%    MPKI:0.00
PC:2d48c     Total:1191      MisBP:0   MisRate:0.00%    MPKI:0.00
PC:2d40c     Total:10      MisBP:0   MisRate:0.00%    MPKI:0.00
PC:14eaa     Total:12677      MisBP:0   MisRate:0.00%    MPKI:0.00
PC:2cc54     Total:10916      MisBP:0   MisRate:0.00%    MPKI:0.00
PC:14f1c     Total:48642      MisBP:0   MisRate:0.00%    MPKI:0.00
PC:2c93a     Total:147      MisBP:1   MisRate:0.68%    MPKI:0.00
PC:2d4c4     Total:58      MisBP:1   MisRate:1.72%    MPKI:0.00
PC:2c4f4     Total:48      MisBP:1   MisRate:2.08%    MPKI:0.00
PC:2d9a8     Total:71      MisBP:1   MisRate:1.41%    MPKI:0.00
PC:2c4fa     Total:48      MisBP:1   MisRate:2.08%    MPKI:0.00
PC:2c50c     Total:9      MisBP:1   MisRate:11.11%    MPKI:0.00
PC:2c506     Total:47      MisBP:1   MisRate:2.13%    MPKI:0.00
PC:2c9ba     Total:6756      MisBP:1   MisRate:0.01%    MPKI:0.00
PC:2c550     Total:69      MisBP:1   MisRate:1.45%    MPKI:0.00
PC:2cd9c     Total:44      MisBP:1   MisRate:2.27%    MPKI:0.00
PC:2c9e8     Total:2654      MisBP:2   MisRate:0.08%    MPKI:0.00
PC:2d618     Total:97      MisBP:2   MisRate:2.06%    MPKI:0.00
PC:2d6c4     Total:20      MisBP:2   MisRate:10.00%    MPKI:0.00
PC:2caa2     Total:475      MisBP:2   MisRate:0.42%    MPKI:0.00
PC:2d76c     Total:7      MisBP:3   MisRate:42.86%    MPKI:0.00
PC:2d492     Total:1190      MisBP:4   MisRate:0.34%    MPKI:0.00
PC:2d758     Total:233      MisBP:4   MisRate:1.72%    MPKI:0.00
PC:14f74     Total:82653      MisBP:4   MisRate:0.00%    MPKI:0.00
PC:2c538     Total:68      MisBP:5   MisRate:7.35%    MPKI:0.00
PC:2d724     Total:68      MisBP:5   MisRate:7.35%    MPKI:0.00
PC:2d3d8     Total:45      MisBP:6   MisRate:13.33%    MPKI:0.00
PC:2d9e2     Total:67      MisBP:6   MisRate:8.96%    MPKI:0.00
PC:14e1a     Total:8388      MisBP:7   MisRate:0.08%    MPKI:0.00
PC:2d8e2     Total:197      MisBP:7   MisRate:3.55%    MPKI:0.00
PC:14d9a     Total:967894      MisBP:8   MisRate:0.00%    MPKI:0.00
PC:2d47e     Total:866      MisBP:9   MisRate:1.04%    MPKI:0.00
PC:2c962     Total:110      MisBP:9   MisRate:8.18%    MPKI:0.00
PC:2da5c     Total:26      MisBP:10   MisRate:38.46%    MPKI:0.00
PC:2da2e     Total:95      MisBP:11   MisRate:11.58%    MPKI:0.00
PC:2c998     Total:11713      MisBP:11   MisRate:0.09%    MPKI:0.00
PC:2cf4a     Total:4921      MisBP:12   MisRate:0.24%    MPKI:0.00
PC:14d4c     Total:276      MisBP:12   MisRate:4.35%    MPKI:0.00
PC:2d676     Total:55      MisBP:14   MisRate:25.45%    MPKI:0.00
PC:2c588     Total:70      MisBP:14   MisRate:20.00%    MPKI:0.00
PC:2d5be     Total:106      MisBP:15   MisRate:14.15%    MPKI:0.00
PC:2d8f8     Total:203      MisBP:17   MisRate:8.37%    MPKI:0.00
PC:2d4ee     Total:59      MisBP:20   MisRate:33.90%    MPKI:0.00
PC:2d586     Total:1753      MisBP:24   MisRate:1.37%    MPKI:0.00
PC:14efc     Total:72658      MisBP:24   MisRate:0.03%    MPKI:0.00
PC:2da3e     Total:103      MisBP:28   MisRate:27.18%    MPKI:0.00
PC:2f43e     Total:18136      MisBP:29   MisRate:0.16%    MPKI:0.00
PC:14cd2     Total:152923      MisBP:32   MisRate:0.02%    MPKI:0.00
PC:2f44a     Total:13093      MisBP:33   MisRate:0.25%    MPKI:0.00
PC:2c5b2     Total:968      MisBP:35   MisRate:3.62%    MPKI:0.00
PC:10a2e     Total:1199      MisBP:38   MisRate:3.17%    MPKI:0.00
PC:2c4e6     Total:841      MisBP:41   MisRate:4.88%    MPKI:0.00
PC:2d7d0     Total:217      MisBP:41   MisRate:18.89%    MPKI:0.00
PC:10a24     Total:1244      MisBP:41   MisRate:3.30%    MPKI:0.00
PC:2d66e     Total:361      MisBP:43   MisRate:11.91%    MPKI:0.00
PC:2d3c6     Total:451      MisBP:44   MisRate:9.76%    MPKI:0.00
PC:2d710     Total:238      MisBP:46   MisRate:19.33%    MPKI:0.00
PC:2d9ee     Total:666      MisBP:50   MisRate:7.51%    MPKI:0.00
PC:2d628     Total:1167      MisBP:52   MisRate:4.46%    MPKI:0.00
PC:2ca44     Total:2046      MisBP:53   MisRate:2.59%    MPKI:0.00
PC:2d4ac     Total:493      MisBP:54   MisRate:10.95%    MPKI:0.00
PC:10a56     Total:10421      MisBP:75   MisRate:0.72%    MPKI:0.00
PC:2c8ba     Total:11969      MisBP:76   MisRate:0.63%    MPKI:0.00
PC:2d58e     Total:1718      MisBP:91   MisRate:5.30%    MPKI:0.00
PC:14cfa     Total:6952886      MisBP:98   MisRate:0.00%    MPKI:0.00
PC:10a4c     Total:16359      MisBP:101   MisRate:0.62%    MPKI:0.00
PC:2cd54     Total:615      MisBP:119   MisRate:19.35%    MPKI:0.00
PC:2d44e     Total:940      MisBP:143   MisRate:15.21%    MPKI:0.00
PC:2d7ca     Total:1041      MisBP:177   MisRate:17.00%    MPKI:0.00
PC:14d44     Total:32236386      MisBP:177   MisRate:0.00%    MPKI:0.00
PC:14e12     Total:66315      MisBP:182   MisRate:0.27%    MPKI:0.00
PC:2d560     Total:1990      MisBP:185   MisRate:9.30%    MPKI:0.00
PC:14df0     Total:66524      MisBP:233   MisRate:0.35%    MPKI:0.00
PC:2d57e     Total:1647      MisBP:240   MisRate:14.57%    MPKI:0.00
PC:14f6c     Total:1379      MisBP:299   MisRate:21.68%    MPKI:0.00
PC:14dfc     Total:131866      MisBP:635   MisRate:0.48%    MPKI:0.00
PC:14eee     Total:75895      MisBP:857   MisRate:1.13%    MPKI:0.00
PC:12d0c     Total:8314451      MisBP:859   MisRate:0.01%    MPKI:0.00
PC:14e94     Total:593476      MisBP:933   MisRate:0.16%    MPKI:0.00
PC:14ed8     Total:11120      MisBP:2320   MisRate:20.86%    MPKI:0.01
PC:14e9e     Total:58076      MisBP:6649   MisRate:11.45%    MPKI:0.02
PC:14f86     Total:17754      MisBP:14360   MisRate:80.88%    MPKI:0.05
PC:14eda     Total:75994      MisBP:18296   MisRate:24.08%    MPKI:0.06
PC:14e00     Total:129379      MisBP:39527   MisRate:30.55%    MPKI:0.13
PC:14e9a     Total:560792      MisBP:41982   MisRate:7.49%    MPKI:0.14
PC:14e8a     Total:543476      MisBP:63435   MisRate:11.67%    MPKI:0.20
PC:14d96     Total:7042461      MisBP:161228   MisRate:2.29%    MPKI:0.52
PC:14d04     Total:29476729      MisBP:3473040   MisRate:11.78%    MPKI:11.20
PC:14d34     Total:31944886      MisBP:5494465   MisRate:17.20%    MPKI:17.72
Totfetch:654209795  TotInsts:310000002  TotMis : inf%   MPKI : 30.07
=============finish sim!!!!!!=============
Done running SimPoint!
