Global frequency set at 1000000000000 ticks per second
 Register [printBranch()] ExitCallback !!!!!!! 
gem5 Simulator System.  https://www.gem5.org
gem5 is copyrighted software; use the --copyright option for details.

gem5 version 22.0.0.2
gem5 compiled Sep  7 2022 00:42:18
gem5 started Sep  7 2022 02:09:25
gem5 executing on a100, pid 2731836
command line: /data/zxf/gem5/gem5-prof/build/ARM/gem5.fast --outdir=/data/zxf/checkpoint/spec2006/445.gobmk/prof/gobmk_ckp_3 /data/zxf/gem5/gem5-prof/configs/example/se.py --cpu-type O3CPU --cpu-clock 1GHz --num-cpu 1 --caches --l2cache --l1i_size 32kB --l1d_size 32kB --l2_size 1MB --l1i_assoc 8 --l1d_assoc 8 --l2_assoc 16 --cacheline_size 64 --mem-type DDR3_2133_8x8 --mem-size 16GB --l1d-hwp-type=BOPPrefetcher --restore-simpoint-checkpoint -r 3 --checkpoint-dir /data/zxf/checkpoint/spec2006/445.gobmk/ckpt -i 13x13.tst -c gobmk_base.gcc41-64bit -o '--quiet --mode gtp'

info: Standard input is not a terminal, disabling listeners.
Resuming from /data/zxf/checkpoint/spec2006/445.gobmk/ckpt/cpt.simpoint_02_inst_14090000000_weight_0.036504_interval_300000000_warmup_10000000
Resuming from SimPoint #2, start_inst:14090000000, weight:0.036504, interval:300000000, warmup:10000000
Switch at curTick count:10000
Switched CPUS @ tick 9485798234500
[(<m5.objects.ArmCPU.ArmAtomicSimpleCPU object at 0x7fe63dc07bb0>, <m5.objects.ArmCPU.ArmO3CPU object at 0x7fe63dc20e20>)]
switching cpus



+++++++++++++++++++++++++zxf print simpoint+++++++++++++++++++++++++++
Warmed up! Dumping and resetting stats!


=============start sim!!!!!!=============
PC:41d04     Total:12366      MisBP:0   MisRate:0.00%    MPKI:0.00
PC:3266c     Total:135      MisBP:0   MisRate:0.00%    MPKI:0.00
PC:187e4     Total:5979      MisBP:0   MisRate:0.00%    MPKI:0.00
PC:418d0     Total:253      MisBP:0   MisRate:0.00%    MPKI:0.00
PC:2d48c     Total:262      MisBP:0   MisRate:0.00%    MPKI:0.00
PC:42134     Total:7      MisBP:0   MisRate:0.00%    MPKI:0.00
PC:19048     Total:11231      MisBP:0   MisRate:0.00%    MPKI:0.00
PC:187e6     Total:5978      MisBP:0   MisRate:0.00%    MPKI:0.00
PC:418d2     Total:244      MisBP:0   MisRate:0.00%    MPKI:0.00
PC:990ba     Total:243      MisBP:0   MisRate:0.00%    MPKI:0.00
PC:2d48e     Total:260      MisBP:0   MisRate:0.00%    MPKI:0.00
PC:7a1f4     Total:6      MisBP:0   MisRate:0.00%    MPKI:0.00
PC:3c892     Total:8492      MisBP:0   MisRate:0.00%    MPKI:0.00
PC:187e8     Total:5977      MisBP:0   MisRate:0.00%    MPKI:0.00
PC:418d4     Total:244      MisBP:0   MisRate:0.00%    MPKI:0.00
PC:41d06     Total:12366      MisBP:0   MisRate:0.00%    MPKI:0.00
PC:2d490     Total:260      MisBP:0   MisRate:0.00%    MPKI:0.00
PC:7a1f8     Total:6      MisBP:0   MisRate:0.00%    MPKI:0.00
PC:3c88e     Total:8492      MisBP:0   MisRate:0.00%    MPKI:0.00
PC:7a1f0     Total:4      MisBP:0   MisRate:0.00%    MPKI:0.00
PC:2d48a     Total:262      MisBP:0   MisRate:0.00%    MPKI:0.00
PC:41d00     Total:10047      MisBP:0   MisRate:0.00%    MPKI:0.00
PC:418ce     Total:253      MisBP:0   MisRate:0.00%    MPKI:0.00
PC:42130     Total:7      MisBP:0   MisRate:0.00%    MPKI:0.00
PC:2d488     Total:262      MisBP:0   MisRate:0.00%    MPKI:0.00
PC:418cc     Total:210      MisBP:0   MisRate:0.00%    MPKI:0.00
PC:187e0     Total:5979      MisBP:0   MisRate:0.00%    MPKI:0.00
PC:79556     Total:177      MisBP:0   MisRate:0.00%    MPKI:0.00
PC:32668     Total:135      MisBP:0   MisRate:0.00%    MPKI:0.00
PC:990b6     Total:243      MisBP:0   MisRate:0.00%    MPKI:0.00
PC:3c88a     Total:8492      MisBP:0   MisRate:0.00%    MPKI:0.00
PC:7a1ec     Total:36      MisBP:0   MisRate:0.00%    MPKI:0.00
PC:19042     Total:11155      MisBP:0   MisRate:0.00%    MPKI:0.00
PC:2d49a     Total:259      MisBP:0   MisRate:0.00%    MPKI:0.00
PC:3c89a     Total:8492      MisBP:0   MisRate:0.00%    MPKI:0.00
PC:418dc     Total:181      MisBP:0   MisRate:0.00%    MPKI:0.00
PC:2d498     Total:259      MisBP:0   MisRate:0.00%    MPKI:0.00
PC:990c8     Total:9      MisBP:0   MisRate:0.00%    MPKI:0.00
PC:3267a     Total:129      MisBP:0   MisRate:0.00%    MPKI:0.00
PC:187f2     Total:209379      MisBP:0   MisRate:0.00%    MPKI:0.00
PC:418de     Total:181      MisBP:0   MisRate:0.00%    MPKI:0.00
PC:41d10     Total:14201      MisBP:0   MisRate:0.00%    MPKI:0.00
PC:7a1fc     Total:24      MisBP:0   MisRate:0.00%    MPKI:0.00
PC:42142     Total:1262      MisBP:0   MisRate:0.00%    MPKI:0.00
PC:19056     Total:47372      MisBP:0   MisRate:0.00%    MPKI:0.00
PC:3c8a0     Total:14206      MisBP:0   MisRate:0.00%    MPKI:0.00
PC:3267e     Total:129      MisBP:0   MisRate:0.00%    MPKI:0.00
PC:7f244     Total:231      MisBP:0   MisRate:0.00%    MPKI:0.00
PC:187f6     Total:209336      MisBP:0   MisRate:0.00%    MPKI:0.00
PC:418e2     Total:420      MisBP:0   MisRate:0.00%    MPKI:0.00
PC:418ca     Total:210      MisBP:0   MisRate:0.00%    MPKI:0.00
PC:19052     Total:47582      MisBP:0   MisRate:0.00%    MPKI:0.00
PC:2d496     Total:259      MisBP:0   MisRate:0.00%    MPKI:0.00
PC:41d0c     Total:12366      MisBP:0   MisRate:0.00%    MPKI:0.00
PC:418da     Total:181      MisBP:0   MisRate:0.00%    MPKI:0.00
PC:187ee     Total:209401      MisBP:0   MisRate:0.00%    MPKI:0.00
PC:32676     Total:129      MisBP:0   MisRate:0.00%    MPKI:0.00
PC:990c4     Total:9      MisBP:0   MisRate:0.00%    MPKI:0.00
PC:3c898     Total:8492      MisBP:0   MisRate:0.00%    MPKI:0.00
PC:7a1fa     Total:6      MisBP:0   MisRate:0.00%    MPKI:0.00
PC:19050     Total:47582      MisBP:0   MisRate:0.00%    MPKI:0.00
PC:2d494     Total:260      MisBP:0   MisRate:0.00%    MPKI:0.00
PC:41d0a     Total:12366      MisBP:0   MisRate:0.00%    MPKI:0.00
PC:418d8     Total:181      MisBP:0   MisRate:0.00%    MPKI:0.00
PC:79562     Total:512      MisBP:0   MisRate:0.00%    MPKI:0.00
PC:3c896     Total:8492      MisBP:0   MisRate:0.00%    MPKI:0.00
PC:2e6de     Total:194      MisBP:0   MisRate:0.00%    MPKI:0.00
PC:518aa     Total:100      MisBP:0   MisRate:0.00%    MPKI:0.00
PC:33244     Total:144      MisBP:0   MisRate:0.00%    MPKI:0.00
PC:3c7d0     Total:58355      MisBP:0   MisRate:0.00%    MPKI:0.00
PC:7a132     Total:101      MisBP:0   MisRate:0.00%    MPKI:0.00
PC:47826     Total:21046      MisBP:0   MisRate:0.00%    MPKI:0.00
PC:3ed76     Total:15      MisBP:0   MisRate:0.00%    MPKI:0.00
PC:15c8a     Total:88123      MisBP:0   MisRate:0.00%    MPKI:0.00
PC:19e68     Total:525      MisBP:0   MisRate:0.00%    MPKI:0.00
PC:3d034     Total:178      MisBP:0   MisRate:0.00%    MPKI:0.00
PC:15594     Total:49214      MisBP:0   MisRate:0.00%    MPKI:0.00
PC:1f7b6     Total:1905      MisBP:0   MisRate:0.00%    MPKI:0.00
PC:99a00     Total:6      MisBP:0   MisRate:0.00%    MPKI:0.00
PC:47828     Total:21046      MisBP:0   MisRate:0.00%    MPKI:0.00
PC:3304e     Total:50      MisBP:0   MisRate:0.00%    MPKI:0.00
PC:99a9c     Total:214      MisBP:0   MisRate:0.00%    MPKI:0.00
PC:3305e     Total:3      MisBP:0   MisRate:0.00%    MPKI:0.00
PC:1af34     Total:40533      MisBP:0   MisRate:0.00%    MPKI:0.00
PC:7a996     Total:2      MisBP:0   MisRate:0.00%    MPKI:0.00
PC:1acca     Total:41132      MisBP:0   MisRate:0.00%    MPKI:0.00
PC:47822     Total:21578      MisBP:0   MisRate:0.00%    MPKI:0.00
PC:999fa     Total:14      MisBP:0   MisRate:0.00%    MPKI:0.00
PC:1acc6     Total:41132      MisBP:0   MisRate:0.00%    MPKI:0.00
PC:3323c     Total:151      MisBP:0   MisRate:0.00%    MPKI:0.00
PC:47ab2     Total:2609      MisBP:0   MisRate:0.00%    MPKI:0.00
PC:1acc0     Total:45786      MisBP:0   MisRate:0.00%    MPKI:0.00
PC:15c7e     Total:2229      MisBP:0   MisRate:0.00%    MPKI:0.00
PC:1ad68     Total:985      MisBP:0   MisRate:0.00%    MPKI:0.00
PC:2f5de     Total:403      MisBP:0   MisRate:0.00%    MPKI:0.00
PC:7b27a     Total:16      MisBP:0   MisRate:0.00%    MPKI:0.00
PC:3d918     Total:13      MisBP:0   MisRate:0.00%    MPKI:0.00
PC:15d26     Total:14828      MisBP:0   MisRate:0.00%    MPKI:0.00
PC:7c774     Total:2      MisBP:0   MisRate:0.00%    MPKI:0.00
PC:42ba6     Total:5      MisBP:0   MisRate:0.00%    MPKI:0.00
PC:187de     Total:5981      MisBP:0   MisRate:0.00%    MPKI:0.00
PC:418c6     Total:210      MisBP:0   MisRate:0.00%    MPKI:0.00
PC:32662     Total:135      MisBP:0   MisRate:0.00%    MPKI:0.00
PC:3c884     Total:53596      MisBP:0   MisRate:0.00%    MPKI:0.00
PC:7a1e6     Total:10      MisBP:0   MisRate:0.00%    MPKI:0.00
PC:196ae     Total:224834      MisBP:0   MisRate:0.00%    MPKI:0.00
PC:2f3c0     Total:276      MisBP:0   MisRate:0.00%    MPKI:0.00
PC:48b1e     Total:534      MisBP:0   MisRate:0.00%    MPKI:0.00
PC:15810     Total:20455      MisBP:0   MisRate:0.00%    MPKI:0.00
PC:2ec96     Total:104      MisBP:0   MisRate:0.00%    MPKI:0.00
PC:1a852     Total:2219      MisBP:0   MisRate:0.00%    MPKI:0.00
PC:15f06     Total:29594      MisBP:0   MisRate:0.00%    MPKI:0.00
PC:7c954     Total:17      MisBP:0   MisRate:0.00%    MPKI:0.00
PC:3eff2     Total:41      MisBP:0   MisRate:0.00%    MPKI:0.00
PC:2e330     Total:614      MisBP:0   MisRate:0.00%    MPKI:0.00
PC:5ff48     Total:2180      MisBP:0   MisRate:0.00%    MPKI:0.00
PC:19ab6     Total:7459      MisBP:0   MisRate:0.00%    MPKI:0.00
PC:2e32c     Total:633      MisBP:0   MisRate:0.00%    MPKI:0.00
PC:42ba2     Total:5      MisBP:0   MisRate:0.00%    MPKI:0.00
PC:41cc0     Total:17170      MisBP:0   MisRate:0.00%    MPKI:0.00
PC:18bd4     Total:405293      MisBP:0   MisRate:0.00%    MPKI:0.00
PC:2dca6     Total:3616      MisBP:0   MisRate:0.00%    MPKI:0.00
PC:1ae2e     Total:6154      MisBP:0   MisRate:0.00%    MPKI:0.00
PC:2f6a4     Total:44      MisBP:0   MisRate:0.00%    MPKI:0.00
PC:1ae20     Total:21766      MisBP:0   MisRate:0.00%    MPKI:0.00
PC:2f696     Total:33      MisBP:0   MisRate:0.00%    MPKI:0.00
PC:99998     Total:2170      MisBP:0   MisRate:0.00%    MPKI:0.00
PC:323e4     Total:357      MisBP:0   MisRate:0.00%    MPKI:0.00
PC:3c606     Total:25508      MisBP:0   MisRate:0.00%    MPKI:0.00
PC:2ec82     Total:123      MisBP:0   MisRate:0.00%    MPKI:0.00
PC:1a83e     Total:2524      MisBP:0   MisRate:0.00%    MPKI:0.00
PC:4192a     Total:41      MisBP:0   MisRate:0.00%    MPKI:0.00
PC:19718     Total:17166      MisBP:0   MisRate:0.00%    MPKI:0.00
PC:1883c     Total:8251      MisBP:0   MisRate:0.00%    MPKI:0.00
PC:41928     Total:41      MisBP:0   MisRate:0.00%    MPKI:0.00
PC:5ff8e     Total:243      MisBP:0   MisRate:0.00%    MPKI:0.00
PC:4218c     Total:1      MisBP:0   MisRate:0.00%    MPKI:0.00
PC:190a0     Total:24948      MisBP:0   MisRate:0.00%    MPKI:0.00
PC:7a24a     Total:129      MisBP:0   MisRate:0.00%    MPKI:0.00
PC:3c8e8     Total:23020      MisBP:0   MisRate:0.00%    MPKI:0.00
PC:1909c     Total:24948      MisBP:0   MisRate:0.00%    MPKI:0.00
PC:41d5c     Total:12303      MisBP:0   MisRate:0.00%    MPKI:0.00
PC:2d4e6     Total:312      MisBP:0   MisRate:0.00%    MPKI:0.00
PC:5ff90     Total:81      MisBP:0   MisRate:0.00%    MPKI:0.00
PC:4218e     Total:1      MisBP:0   MisRate:0.00%    MPKI:0.00
PC:190a2     Total:24948      MisBP:0   MisRate:0.00%    MPKI:0.00
PC:795b8     Total:199      MisBP:0   MisRate:0.00%    MPKI:0.00
PC:1971e     Total:16548      MisBP:0   MisRate:0.00%    MPKI:0.00
PC:4192e     Total:13      MisBP:0   MisRate:0.00%    MPKI:0.00
PC:42188     Total:1      MisBP:0   MisRate:0.00%    MPKI:0.00
PC:5ff8a     Total:81      MisBP:0   MisRate:0.00%    MPKI:0.00
PC:41924     Total:39      MisBP:0   MisRate:0.00%    MPKI:0.00
PC:18838     Total:8255      MisBP:0   MisRate:0.00%    MPKI:0.00
PC:19714     Total:17166      MisBP:0   MisRate:0.00%    MPKI:0.00
PC:5ff88     Total:81      MisBP:0   MisRate:0.00%    MPKI:0.00
PC:2d4de     Total:622      MisBP:0   MisRate:0.00%    MPKI:0.00
PC:41d54     Total:12513      MisBP:0   MisRate:0.00%    MPKI:0.00
PC:41922     Total:39      MisBP:0   MisRate:0.00%    MPKI:0.00
PC:19712     Total:17166      MisBP:0   MisRate:0.00%    MPKI:0.00
PC:5ff84     Total:81      MisBP:0   MisRate:0.00%    MPKI:0.00
PC:2d4da     Total:622      MisBP:0   MisRate:0.00%    MPKI:0.00
PC:41d50     Total:12513      MisBP:0   MisRate:0.00%    MPKI:0.00
PC:19094     Total:24948      MisBP:0   MisRate:0.00%    MPKI:0.00
PC:42180     Total:1      MisBP:0   MisRate:0.00%    MPKI:0.00
PC:3c8f6     Total:20448      MisBP:0   MisRate:0.00%    MPKI:0.00
PC:42196     Total:1      MisBP:0   MisRate:0.00%    MPKI:0.00
PC:190aa     Total:21162      MisBP:0   MisRate:0.00%    MPKI:0.00
PC:795c0     Total:190      MisBP:0   MisRate:0.00%    MPKI:0.00
PC:19726     Total:72097      MisBP:0   MisRate:0.00%    MPKI:0.00
PC:41936     Total:13      MisBP:0   MisRate:0.00%    MPKI:0.00
PC:5ff9c     Total:55      MisBP:0   MisRate:0.00%    MPKI:0.00
PC:4219a     Total:1      MisBP:0   MisRate:0.00%    MPKI:0.00
PC:7a258     Total:94      MisBP:0   MisRate:0.00%    MPKI:0.00
PC:5ff98     Total:81      MisBP:0   MisRate:0.00%    MPKI:0.00
PC:795c2     Total:190      MisBP:0   MisRate:0.00%    MPKI:0.00
PC:1884c     Total:6997      MisBP:0   MisRate:0.00%    MPKI:0.00
PC:41938     Total:13      MisBP:0   MisRate:0.00%    MPKI:0.00
PC:41d6a     Total:733      MisBP:0   MisRate:0.00%    MPKI:0.00
PC:2d4f4     Total:711      MisBP:0   MisRate:0.00%    MPKI:0.00
PC:7a25c     Total:498      MisBP:0   MisRate:0.00%    MPKI:0.00
PC:3c8fa     Total:18891      MisBP:0   MisRate:0.00%    MPKI:0.00
PC:2d4d8     Total:622      MisBP:0   MisRate:0.00%    MPKI:0.00
PC:2d4ee     Total:311      MisBP:0   MisRate:0.00%    MPKI:0.00
PC:41d64     Total:733      MisBP:0   MisRate:0.00%    MPKI:0.00
PC:41932     Total:13      MisBP:0   MisRate:0.00%    MPKI:0.00
PC:19722     Total:144319      MisBP:0   MisRate:0.00%    MPKI:0.00
PC:795bc     Total:199      MisBP:0   MisRate:0.00%    MPKI:0.00
PC:3c8f0     Total:20448      MisBP:0   MisRate:0.00%    MPKI:0.00
PC:7a252     Total:129      MisBP:0   MisRate:0.00%    MPKI:0.00
PC:190a8     Total:21162      MisBP:0   MisRate:0.00%    MPKI:0.00
PC:5ff96     Total:81      MisBP:0   MisRate:0.00%    MPKI:0.00
PC:2d4ec     Total:312      MisBP:0   MisRate:0.00%    MPKI:0.00
PC:41930     Total:13      MisBP:0   MisRate:0.00%    MPKI:0.00
PC:18844     Total:7003      MisBP:0   MisRate:0.00%    MPKI:0.00
PC:19720     Total:16548      MisBP:0   MisRate:0.00%    MPKI:0.00
PC:42192     Total:1      MisBP:0   MisRate:0.00%    MPKI:0.00
PC:5ff94     Total:81      MisBP:0   MisRate:0.00%    MPKI:0.00
PC:42152     Total:881      MisBP:0   MisRate:0.00%    MPKI:0.00
PC:418ec     Total:449      MisBP:0   MisRate:0.00%    MPKI:0.00
PC:41d1e     Total:14187      MisBP:0   MisRate:0.00%    MPKI:0.00
PC:2d4a8     Total:58380      MisBP:0   MisRate:0.00%    MPKI:0.00
PC:5ff52     Total:436      MisBP:0   MisRate:0.00%    MPKI:0.00
PC:7f250     Total:231      MisBP:0   MisRate:0.00%    MPKI:0.00
PC:41d20     Total:14185      MisBP:0   MisRate:0.00%    MPKI:0.00
PC:2d4aa     Total:58379      MisBP:0   MisRate:0.00%    MPKI:0.00
PC:5ff54     Total:430      MisBP:0   MisRate:0.00%    MPKI:0.00
PC:18800     Total:197859      MisBP:0   MisRate:0.00%    MPKI:0.00
PC:19066     Total:47335      MisBP:0   MisRate:0.00%    MPKI:0.00
PC:7f254     Total:231      MisBP:0   MisRate:0.00%    MPKI:0.00
PC:418f2     Total:318      MisBP:0   MisRate:0.00%    MPKI:0.00
PC:41d24     Total:13754      MisBP:0   MisRate:0.00%    MPKI:0.00
PC:2d4ae     Total:115650      MisBP:0   MisRate:0.00%    MPKI:0.00
PC:5ff58     Total:430      MisBP:0   MisRate:0.00%    MPKI:0.00
PC:42156     Total:881      MisBP:0   MisRate:0.00%    MPKI:0.00
PC:1906a     Total:44546      MisBP:0   MisRate:0.00%    MPKI:0.00
PC:19062     Total:47335      MisBP:0   MisRate:0.00%    MPKI:0.00
PC:4214e     Total:1209      MisBP:0   MisRate:0.00%    MPKI:0.00
PC:2d4a6     Total:259      MisBP:0   MisRate:0.00%    MPKI:0.00
PC:418ea     Total:451      MisBP:0   MisRate:0.00%    MPKI:0.00
PC:187fe     Total:209319      MisBP:0   MisRate:0.00%    MPKI:0.00
PC:7f24c     Total:231      MisBP:0   MisRate:0.00%    MPKI:0.00
PC:3c8a8     Total:14206      MisBP:0   MisRate:0.00%    MPKI:0.00
PC:5ff4e     Total:436      MisBP:0   MisRate:0.00%    MPKI:0.00
PC:2d4a4     Total:259      MisBP:0   MisRate:0.00%    MPKI:0.00
PC:41d1a     Total:14187      MisBP:0   MisRate:0.00%    MPKI:0.00
PC:418e8     Total:419      MisBP:0   MisRate:0.00%    MPKI:0.00
PC:5ff4a     Total:436      MisBP:0   MisRate:0.00%    MPKI:0.00
PC:2d4a0     Total:259      MisBP:0   MisRate:0.00%    MPKI:0.00
PC:418e4     Total:839      MisBP:0   MisRate:0.00%    MPKI:0.00
PC:1905a     Total:47352      MisBP:0   MisRate:0.00%    MPKI:0.00
PC:5ff62     Total:430      MisBP:0   MisRate:0.00%    MPKI:0.00
PC:41d4e     Total:78      MisBP:0   MisRate:0.00%    MPKI:0.00
PC:4191c     Total:191      MisBP:0   MisRate:0.00%    MPKI:0.00
PC:18830     Total:8264      MisBP:0   MisRate:0.00%    MPKI:0.00
PC:795a6     Total:270      MisBP:0   MisRate:0.00%    MPKI:0.00
PC:1970c     Total:17166      MisBP:0   MisRate:0.00%    MPKI:0.00
PC:5ff80     Total:81      MisBP:0   MisRate:0.00%    MPKI:0.00
PC:2d4d6     Total:625      MisBP:0   MisRate:0.00%    MPKI:0.00
PC:4191a     Total:191      MisBP:0   MisRate:0.00%    MPKI:0.00
PC:19424     Total:937      MisBP:0   MisRate:0.00%    MPKI:0.00
PC:2dc9a     Total:3775      MisBP:0   MisRate:0.00%    MPKI:0.00
PC:42510     Total:418      MisBP:0   MisRate:0.00%    MPKI:0.00
PC:19a90     Total:3      MisBP:0   MisRate:0.00%    MPKI:0.00
PC:42b7c     Total:2360      MisBP:0   MisRate:0.00%    MPKI:0.00
PC:19076     Total:44419      MisBP:0   MisRate:0.00%    MPKI:0.00
PC:418fe     Total:236      MisBP:0   MisRate:0.00%    MPKI:0.00
PC:478b4     Total:43143      MisBP:0   MisRate:0.00%    MPKI:0.00
PC:2d4b8     Total:115648      MisBP:0   MisRate:0.00%    MPKI:0.00
PC:41d2e     Total:13692      MisBP:0   MisRate:0.00%    MPKI:0.00
PC:418fc     Total:236      MisBP:0   MisRate:0.00%    MPKI:0.00
PC:196ec     Total:20116      MisBP:0   MisRate:0.00%    MPKI:0.00
PC:5ff60     Total:430      MisBP:0   MisRate:0.00%    MPKI:0.00
PC:418fa     Total:312      MisBP:0   MisRate:0.00%    MPKI:0.00
PC:1880e     Total:197793      MisBP:0   MisRate:0.00%    MPKI:0.00
PC:7f25c     Total:231      MisBP:0   MisRate:0.00%    MPKI:0.00
PC:5ff5e     Total:430      MisBP:0   MisRate:0.00%    MPKI:0.00
PC:2d4b4     Total:115648      MisBP:0   MisRate:0.00%    MPKI:0.00
PC:41d2a     Total:13752      MisBP:0   MisRate:0.00%    MPKI:0.00
PC:418f8     Total:314      MisBP:0   MisRate:0.00%    MPKI:0.00
PC:196e8     Total:23958      MisBP:0   MisRate:0.00%    MPKI:0.00
PC:3c8b6     Total:8005      MisBP:0   MisRate:0.00%    MPKI:0.00
PC:196e6     Total:23982      MisBP:0   MisRate:0.00%    MPKI:0.00
PC:1699a     Total:5921      MisBP:0   MisRate:0.00%    MPKI:0.00
PC:7beea     Total:12      MisBP:0   MisRate:0.00%    MPKI:0.00
PC:1b9d8     Total:152      MisBP:0   MisRate:0.00%    MPKI:0.00
PC:2fe1c     Total:5578      MisBP:0   MisRate:0.00%    MPKI:0.00
PC:15abc     Total:27847      MisBP:0   MisRate:0.00%    MPKI:0.00
PC:3eba8     Total:197      MisBP:0   MisRate:0.00%    MPKI:0.00
PC:1b9da     Total:152      MisBP:0   MisRate:0.00%    MPKI:0.00
PC:2fe1e     Total:5578      MisBP:0   MisRate:0.00%    MPKI:0.00
PC:3fa86     Total:1331      MisBP:0   MisRate:0.00%    MPKI:0.00
PC:3e588     Total:1      MisBP:0   MisRate:0.00%    MPKI:0.00
PC:1b9dc     Total:152      MisBP:0   MisRate:0.00%    MPKI:0.00
PC:2fe20     Total:5571      MisBP:0   MisRate:0.00%    MPKI:0.00
PC:3fa8a     Total:1331      MisBP:0   MisRate:0.00%    MPKI:0.00
PC:1699e     Total:5920      MisBP:0   MisRate:0.00%    MPKI:0.00
PC:1b9e0     Total:150      MisBP:0   MisRate:0.00%    MPKI:0.00
PC:2fe24     Total:5571      MisBP:0   MisRate:0.00%    MPKI:0.00
PC:3fa8c     Total:1331      MisBP:0   MisRate:0.00%    MPKI:0.00
PC:169a0     Total:5918      MisBP:0   MisRate:0.00%    MPKI:0.00
PC:16996     Total:5921      MisBP:0   MisRate:0.00%    MPKI:0.00
PC:2fe1a     Total:5650      MisBP:0   MisRate:0.00%    MPKI:0.00
PC:1b9d6     Total:153      MisBP:0   MisRate:0.00%    MPKI:0.00
PC:7bee8     Total:12      MisBP:0   MisRate:0.00%    MPKI:0.00
PC:1549a     Total:124899      MisBP:0   MisRate:0.00%    MPKI:0.00
PC:3e586     Total:1      MisBP:0   MisRate:0.00%    MPKI:0.00
PC:16994     Total:6418      MisBP:0   MisRate:0.00%    MPKI:0.00
PC:3eba4     Total:197      MisBP:0   MisRate:0.00%    MPKI:0.00
PC:15ab8     Total:27849      MisBP:0   MisRate:0.00%    MPKI:0.00
PC:2fe18     Total:5372      MisBP:0   MisRate:0.00%    MPKI:0.00
PC:1b9d4     Total:153      MisBP:0   MisRate:0.00%    MPKI:0.00
PC:2fe16     Total:5372      MisBP:0   MisRate:0.00%    MPKI:0.00
PC:1b9d2     Total:166      MisBP:0   MisRate:0.00%    MPKI:0.00
PC:16990     Total:6108      MisBP:0   MisRate:0.00%    MPKI:0.00
PC:3fa7c     Total:1406      MisBP:0   MisRate:0.00%    MPKI:0.00
PC:48b20     Total:534      MisBP:0   MisRate:0.00%    MPKI:0.00
PC:3c364     Total:4666      MisBP:0   MisRate:0.00%    MPKI:0.00
PC:413a6     Total:7691      MisBP:0   MisRate:0.00%    MPKI:0.00
PC:3c372     Total:16130      MisBP:0   MisRate:0.00%    MPKI:0.00
PC:413b4     Total:1867      MisBP:0   MisRate:0.00%    MPKI:0.00
PC:166ee     Total:621      MisBP:0   MisRate:0.00%    MPKI:0.00
PC:15812     Total:20454      MisBP:0   MisRate:0.00%    MPKI:0.00
PC:3e8fe     Total:15309      MisBP:0   MisRate:0.00%    MPKI:0.00
PC:1fa34     Total:281      MisBP:0   MisRate:0.00%    MPKI:0.00
PC:beffafe0     Total:1      MisBP:0   MisRate:0.00%    MPKI:0.00
PC:166f6     Total:621      MisBP:0   MisRate:0.00%    MPKI:0.00
PC:32aca     Total:4      MisBP:0   MisRate:0.00%    MPKI:0.00
PC:84ca2     Total:430      MisBP:0   MisRate:0.00%    MPKI:0.00
PC:1f74e     Total:2113      MisBP:0   MisRate:0.00%    MPKI:0.00
PC:166fc     Total:621      MisBP:0   MisRate:0.00%    MPKI:0.00
PC:15824     Total:20073      MisBP:0   MisRate:0.00%    MPKI:0.00
PC:3e910     Total:11126      MisBP:0   MisRate:0.00%    MPKI:0.00
PC:3eba0     Total:197      MisBP:0   MisRate:0.00%    MPKI:0.00
PC:41bfe     Total:632      MisBP:0   MisRate:0.00%    MPKI:0.00
PC:3c358     Total:3998      MisBP:0   MisRate:0.00%    MPKI:0.00
PC:beffafd4     Total:1      MisBP:0   MisRate:0.00%    MPKI:0.00
PC:2d5c0     Total:1349      MisBP:0   MisRate:0.00%    MPKI:0.00
PC:18d4a     Total:94752      MisBP:0   MisRate:0.00%    MPKI:0.00
PC:41e36     Total:1145      MisBP:0   MisRate:0.00%    MPKI:0.00
PC:1917c     Total:9286      MisBP:0   MisRate:0.00%    MPKI:0.00
PC:18b00     Total:24595      MisBP:0   MisRate:0.00%    MPKI:0.00
PC:41bec     Total:631      MisBP:0   MisRate:0.00%    MPKI:0.00
PC:2d5bc     Total:3512      MisBP:0   MisRate:0.00%    MPKI:0.00
PC:18d46     Total:94752      MisBP:0   MisRate:0.00%    MPKI:0.00
PC:41e32     Total:1145      MisBP:0   MisRate:0.00%    MPKI:0.00
PC:19178     Total:9286      MisBP:0   MisRate:0.00%    MPKI:0.00
PC:42264     Total:146      MisBP:0   MisRate:0.00%    MPKI:0.00
PC:1b9e2     Total:150      MisBP:0   MisRate:0.00%    MPKI:0.00
PC:2ceb2     Total:1998      MisBP:0   MisRate:0.00%    MPKI:0.00
PC:18202     Total:52      MisBP:0   MisRate:0.00%    MPKI:0.00
PC:412ee     Total:17184      MisBP:0   MisRate:0.00%    MPKI:0.00
PC:18634     Total:1      MisBP:0   MisRate:0.00%    MPKI:0.00
PC:2ceaa     Total:1998      MisBP:0   MisRate:0.00%    MPKI:0.00
PC:32230     Total:2      MisBP:0   MisRate:0.00%    MPKI:0.00
PC:3c2b4     Total:12681      MisBP:0   MisRate:0.00%    MPKI:0.00
PC:1863c     Total:1      MisBP:0   MisRate:0.00%    MPKI:0.00
PC:41728     Total:492      MisBP:0   MisRate:0.00%    MPKI:0.00
PC:4148c     Total:1313      MisBP:0   MisRate:0.00%    MPKI:0.00
PC:32234     Total:2      MisBP:0   MisRate:0.00%    MPKI:0.00
PC:3c2b8     Total:12644      MisBP:0   MisRate:0.00%    MPKI:0.00
PC:4172c     Total:492      MisBP:0   MisRate:0.00%    MPKI:0.00
PC:2ceb6     Total:842      MisBP:0   MisRate:0.00%    MPKI:0.00
PC:37280     Total:12      MisBP:0   MisRate:0.00%    MPKI:0.00
PC:3c2c2     Total:11000      MisBP:0   MisRate:0.00%    MPKI:0.00
PC:2cec0     Total:12425      MisBP:0   MisRate:0.00%    MPKI:0.00
PC:32242     Total:12      MisBP:0   MisRate:0.00%    MPKI:0.00
PC:3726a     Total:69955      MisBP:0   MisRate:0.00%    MPKI:0.00
PC:3c2ac     Total:11286      MisBP:0   MisRate:0.00%    MPKI:0.00
PC:4171c     Total:20      MisBP:0   MisRate:0.00%    MPKI:0.00
PC:3c2a8     Total:22657      MisBP:0   MisRate:0.00%    MPKI:0.00
PC:18a5a     Total:785      MisBP:0   MisRate:0.00%    MPKI:0.00
PC:41b46     Total:61      MisBP:0   MisRate:0.00%    MPKI:0.00
PC:18bf8     Total:1      MisBP:0   MisRate:0.00%    MPKI:0.00
PC:3725e     Total:70034      MisBP:0   MisRate:0.00%    MPKI:0.00
PC:3c2a0     Total:9916      MisBP:0   MisRate:0.00%    MPKI:0.00
PC:18a56     Total:25685      MisBP:0   MisRate:0.00%    MPKI:0.00
PC:41b42     Total:61      MisBP:0   MisRate:0.00%    MPKI:0.00
PC:18bf4     Total:1      MisBP:0   MisRate:0.00%    MPKI:0.00
PC:41ce0     Total:10752      MisBP:0   MisRate:0.00%    MPKI:0.00
PC:3725a     Total:73222      MisBP:0   MisRate:0.00%    MPKI:0.00
PC:3c29c     Total:9916      MisBP:0   MisRate:0.00%    MPKI:0.00
PC:2fe0c     Total:5349      MisBP:0   MisRate:0.00%    MPKI:0.00
PC:2fe14     Total:5372      MisBP:0   MisRate:0.00%    MPKI:0.00
PC:1b9d0     Total:174      MisBP:0   MisRate:0.00%    MPKI:0.00
PC:2fe12     Total:5372      MisBP:0   MisRate:0.00%    MPKI:0.00
PC:1b9ce     Total:174      MisBP:0   MisRate:0.00%    MPKI:0.00
PC:1698c     Total:6108      MisBP:0   MisRate:0.00%    MPKI:0.00
PC:3fa78     Total:1406      MisBP:0   MisRate:0.00%    MPKI:0.00
PC:2fe10     Total:5372      MisBP:0   MisRate:0.00%    MPKI:0.00
PC:1b9cc     Total:174      MisBP:0   MisRate:0.00%    MPKI:0.00
PC:7bede     Total:6      MisBP:0   MisRate:0.00%    MPKI:0.00
PC:3e57c     Total:165      MisBP:0   MisRate:0.00%    MPKI:0.00
PC:1698a     Total:6108      MisBP:0   MisRate:0.00%    MPKI:0.00
PC:2fe0e     Total:5349      MisBP:0   MisRate:0.00%    MPKI:0.00
PC:1b9ca     Total:174      MisBP:0   MisRate:0.00%    MPKI:0.00
PC:3eb98     Total:197      MisBP:0   MisRate:0.00%    MPKI:0.00
PC:15aac     Total:30452      MisBP:0   MisRate:0.00%    MPKI:0.00
PC:1fa46     Total:254      MisBP:0   MisRate:0.00%    MPKI:0.00
PC:7beda     Total:6      MisBP:0   MisRate:0.00%    MPKI:0.00
PC:3e578     Total:180      MisBP:0   MisRate:0.00%    MPKI:0.00
PC:16986     Total:5738      MisBP:0   MisRate:0.00%    MPKI:0.00
PC:2fe0a     Total:7878      MisBP:0   MisRate:0.00%    MPKI:0.00
PC:16984     Total:5738      MisBP:0   MisRate:0.00%    MPKI:0.00
PC:2fe08     Total:7878      MisBP:0   MisRate:0.00%    MPKI:0.00
PC:7bed6     Total:6      MisBP:0   MisRate:0.00%    MPKI:0.00
PC:16982     Total:5317      MisBP:0   MisRate:0.00%    MPKI:0.00
PC:3fa6e     Total:14      MisBP:0   MisRate:0.00%    MPKI:0.00
PC:2cecc     Total:12998      MisBP:0   MisRate:0.00%    MPKI:0.00
PC:41742     Total:29      MisBP:0   MisRate:0.00%    MPKI:0.00
PC:3728c     Total:2      MisBP:0   MisRate:0.00%    MPKI:0.00
PC:3224a     Total:24      MisBP:0   MisRate:0.00%    MPKI:0.00
PC:2cec4     Total:12425      MisBP:0   MisRate:0.00%    MPKI:0.00
PC:3c2c6     Total:1678      MisBP:0   MisRate:0.00%    MPKI:0.00
PC:4243a     Total:514      MisBP:0   MisRate:0.00%    MPKI:0.00
PC:1841e     Total:466      MisBP:0   MisRate:0.00%    MPKI:0.00
PC:2cc94     Total:87510      MisBP:0   MisRate:0.00%    MPKI:0.00
PC:4150a     Total:2209      MisBP:0   MisRate:0.00%    MPKI:0.00
PC:2cca4     Total:37450      MisBP:0   MisRate:0.00%    MPKI:0.00
PC:4151a     Total:2088      MisBP:0   MisRate:0.00%    MPKI:0.00
PC:1845e     Total:115      MisBP:0   MisRate:0.00%    MPKI:0.00
PC:2ccd4     Total:86027      MisBP:0   MisRate:0.00%    MPKI:0.00
PC:4154a     Total:1356      MisBP:0   MisRate:0.00%    MPKI:0.00
PC:9ba76     Total:43      MisBP:0   MisRate:0.00%    MPKI:0.00
PC:1934e     Total:27480      MisBP:0   MisRate:0.00%    MPKI:0.00
PC:42008     Total:1589      MisBP:0   MisRate:0.00%    MPKI:0.00
PC:2d792     Total:12694      MisBP:0   MisRate:0.00%    MPKI:0.00
PC:41bd4     Total:905      MisBP:0   MisRate:0.00%    MPKI:0.00
PC:42438     Total:514      MisBP:0   MisRate:0.00%    MPKI:0.00
PC:1934c     Total:123753      MisBP:0   MisRate:0.00%    MPKI:0.00
PC:41bd8     Total:905      MisBP:0   MisRate:0.00%    MPKI:0.00
PC:18f1e     Total:271      MisBP:0   MisRate:0.00%    MPKI:0.00
PC:9ba6e     Total:43      MisBP:0   MisRate:0.00%    MPKI:0.00
PC:9ba6a     Total:43      MisBP:0   MisRate:0.00%    MPKI:0.00
PC:9ba66     Total:43      MisBP:0   MisRate:0.00%    MPKI:0.00
PC:9ba58     Total:43      MisBP:0   MisRate:0.00%    MPKI:0.00
PC:17e9e     Total:25398      MisBP:0   MisRate:0.00%    MPKI:0.00
PC:9ba48     Total:248      MisBP:0   MisRate:0.00%    MPKI:0.00
PC:17e8e     Total:25461      MisBP:0   MisRate:0.00%    MPKI:0.00
PC:9ba3a     Total:255      MisBP:0   MisRate:0.00%    MPKI:0.00
PC:17e80     Total:25462      MisBP:0   MisRate:0.00%    MPKI:0.00
PC:93144     Total:1414      MisBP:0   MisRate:0.00%    MPKI:0.00
PC:414ec     Total:245      MisBP:0   MisRate:0.00%    MPKI:0.00
PC:3c648     Total:26438      MisBP:0   MisRate:0.00%    MPKI:0.00
PC:32426     Total:49      MisBP:0   MisRate:0.00%    MPKI:0.00
PC:414e8     Total:245      MisBP:0   MisRate:0.00%    MPKI:0.00
PC:2cc72     Total:89924      MisBP:0   MisRate:0.00%    MPKI:0.00
PC:478b0     Total:43160      MisBP:0   MisRate:0.00%    MPKI:0.00
PC:1f842     Total:9487      MisBP:0   MisRate:0.00%    MPKI:0.00
PC:15620     Total:58894      MisBP:0   MisRate:0.00%    MPKI:0.00
PC:3e70c     Total:23429      MisBP:0   MisRate:0.00%    MPKI:0.00
PC:2e76a     Total:682      MisBP:0   MisRate:0.00%    MPKI:0.00
PC:19ef4     Total:29      MisBP:0   MisRate:0.00%    MPKI:0.00
PC:1ad58     Total:1001      MisBP:0   MisRate:0.00%    MPKI:0.00
PC:2f5ce     Total:490      MisBP:0   MisRate:0.00%    MPKI:0.00
PC:7b26a     Total:16      MisBP:0   MisRate:0.00%    MPKI:0.00
PC:29092     Total:380      MisBP:0   MisRate:0.00%    MPKI:0.00
PC:3d908     Total:1      MisBP:0   MisRate:0.00%    MPKI:0.00
PC:15d16     Total:30135      MisBP:0   MisRate:0.00%    MPKI:0.00
PC:3ee02     Total:80      MisBP:0   MisRate:0.00%    MPKI:0.00
PC:7c764     Total:2      MisBP:0   MisRate:0.00%    MPKI:0.00
PC:14e06     Total:57506      MisBP:0   MisRate:0.00%    MPKI:0.00
PC:7b854     Total:59      MisBP:0   MisRate:0.00%    MPKI:0.00
PC:32422     Total:49      MisBP:0   MisRate:0.00%    MPKI:0.00
PC:2e766     Total:682      MisBP:0   MisRate:0.00%    MPKI:0.00
PC:19ef0     Total:29      MisBP:0   MisRate:0.00%    MPKI:0.00
PC:14df4     Total:60960      MisBP:0   MisRate:0.00%    MPKI:0.00
PC:1f82c     Total:11250      MisBP:0   MisRate:0.00%    MPKI:0.00
PC:1560a     Total:59393      MisBP:0   MisRate:0.00%    MPKI:0.00
PC:2e754     Total:1      MisBP:0   MisRate:0.00%    MPKI:0.00
PC:19ede     Total:29      MisBP:0   MisRate:0.00%    MPKI:0.00
PC:2eec2     Total:12      MisBP:0   MisRate:0.00%    MPKI:0.00
PC:14df2     Total:60962      MisBP:0   MisRate:0.00%    MPKI:0.00
PC:7b840     Total:50      MisBP:0   MisRate:0.00%    MPKI:0.00
PC:4789c     Total:50197      MisBP:0   MisRate:0.00%    MPKI:0.00
PC:323b6     Total:522      MisBP:0   MisRate:0.00%    MPKI:0.00
PC:3c5d8     Total:25729      MisBP:0   MisRate:0.00%    MPKI:0.00
PC:2d794     Total:12694      MisBP:0   MisRate:0.00%    MPKI:0.00
PC:4200a     Total:1589      MisBP:0   MisRate:0.00%    MPKI:0.00
PC:3e976     Total:2935      MisBP:0   MisRate:0.00%    MPKI:0.00
PC:1586c     Total:17845      MisBP:0   MisRate:0.00%    MPKI:0.00
PC:3e958     Total:6962      MisBP:0   MisRate:0.00%    MPKI:0.00
PC:1b790     Total:46094      MisBP:0   MisRate:0.00%    MPKI:0.00
PC:3f850     Total:513      MisBP:0   MisRate:0.00%    MPKI:0.00
PC:16764     Total:17696      MisBP:0   MisRate:0.00%    MPKI:0.00
PC:3f852     Total:513      MisBP:0   MisRate:0.00%    MPKI:0.00
PC:16766     Total:17696      MisBP:0   MisRate:0.00%    MPKI:0.00
PC:1588a     Total:13312      MisBP:0   MisRate:0.00%    MPKI:0.00
PC:3e94c     Total:6985      MisBP:0   MisRate:0.00%    MPKI:0.00
PC:1676a     Total:17695      MisBP:0   MisRate:0.00%    MPKI:0.00
PC:3f858     Total:513      MisBP:0   MisRate:0.00%    MPKI:0.00
PC:1676c     Total:12068      MisBP:0   MisRate:0.00%    MPKI:0.00
PC:16790     Total:2221      MisBP:0   MisRate:0.00%    MPKI:0.00
PC:16796     Total:2221      MisBP:0   MisRate:0.00%    MPKI:0.00
PC:3e388     Total:13      MisBP:0   MisRate:0.00%    MPKI:0.00
PC:7bcea     Total:940      MisBP:0   MisRate:0.00%    MPKI:0.00
PC:3e9a6     Total:9016      MisBP:0   MisRate:0.00%    MPKI:0.00
PC:15860     Total:35687      MisBP:0   MisRate:0.00%    MPKI:0.00
PC:3e946     Total:6974      MisBP:0   MisRate:0.00%    MPKI:0.00
PC:1585a     Total:17846      MisBP:0   MisRate:0.00%    MPKI:0.00
PC:3e93e     Total:10414      MisBP:0   MisRate:0.00%    MPKI:0.00
PC:15852     Total:18583      MisBP:0   MisRate:0.00%    MPKI:0.00
PC:3e93a     Total:10672      MisBP:0   MisRate:0.00%    MPKI:0.00
PC:3e928     Total:10672      MisBP:0   MisRate:0.00%    MPKI:0.00
PC:1583c     Total:20921      MisBP:0   MisRate:0.00%    MPKI:0.00
PC:3e922     Total:10672      MisBP:0   MisRate:0.00%    MPKI:0.00
PC:33b9e     Total:183      MisBP:0   MisRate:0.00%    MPKI:0.00
PC:48414     Total:972      MisBP:0   MisRate:0.00%    MPKI:0.00
PC:1f75a     Total:2533      MisBP:0   MisRate:0.00%    MPKI:0.00
PC:84cae     Total:428      MisBP:0   MisRate:0.00%    MPKI:0.00
PC:32ad6     Total:4      MisBP:0   MisRate:0.00%    MPKI:0.00
PC:48b32     Total:613      MisBP:0   MisRate:0.00%    MPKI:0.00
PC:32ac4     Total:4      MisBP:0   MisRate:0.00%    MPKI:0.00
PC:414da     Total:266      MisBP:0   MisRate:0.00%    MPKI:0.00
PC:414f2     Total:2799      MisBP:0   MisRate:0.00%    MPKI:0.00
PC:2cc7c     Total:452393      MisBP:0   MisRate:0.00%    MPKI:0.00
PC:413fa     Total:461      MisBP:0   MisRate:0.00%    MPKI:0.00
PC:32334     Total:283      MisBP:0   MisRate:0.00%    MPKI:0.00
PC:413ee     Total:1265      MisBP:0   MisRate:0.00%    MPKI:0.00
PC:2cb78     Total:155      MisBP:0   MisRate:0.00%    MPKI:0.00
PC:413e8     Total:1322      MisBP:0   MisRate:0.00%    MPKI:0.00
PC:1f74a     Total:2114      MisBP:0   MisRate:0.00%    MPKI:0.00
PC:84c9e     Total:430      MisBP:0   MisRate:0.00%    MPKI:0.00
PC:32ac6     Total:4      MisBP:0   MisRate:0.00%    MPKI:0.00
PC:166f2     Total:621      MisBP:0   MisRate:0.00%    MPKI:0.00
PC:3f7de     Total:210      MisBP:0   MisRate:0.00%    MPKI:0.00
PC:15526     Total:123079      MisBP:0   MisRate:0.00%    MPKI:0.00
PC:84c9c     Total:430      MisBP:0   MisRate:0.00%    MPKI:0.00
PC:795c6     Total:570      MisBP:0   MisRate:0.00%    MPKI:0.00
PC:7bcfc     Total:939      MisBP:0   MisRate:0.00%    MPKI:0.00
PC:3e39a     Total:10      MisBP:0   MisRate:0.00%    MPKI:0.00
PC:167a8     Total:15736      MisBP:0   MisRate:0.00%    MPKI:0.00
PC:84d54     Total:48519      MisBP:0   MisRate:0.00%    MPKI:0.00
PC:995ca     Total:263      MisBP:0   MisRate:0.00%    MPKI:0.00
PC:7bcf8     Total:939      MisBP:0   MisRate:0.00%    MPKI:0.00
PC:3e396     Total:10      MisBP:0   MisRate:0.00%    MPKI:0.00
PC:167a4     Total:15736      MisBP:0   MisRate:0.00%    MPKI:0.00
PC:3f890     Total:12      MisBP:0   MisRate:0.00%    MPKI:0.00
PC:7bcf4     Total:939      MisBP:0   MisRate:0.00%    MPKI:0.00
PC:3e392     Total:10      MisBP:0   MisRate:0.00%    MPKI:0.00
PC:167a0     Total:15739      MisBP:0   MisRate:0.00%    MPKI:0.00
PC:3f88c     Total:12      MisBP:0   MisRate:0.00%    MPKI:0.00
PC:3e9aa     Total:8147      MisBP:0   MisRate:0.00%    MPKI:0.00
PC:158be     Total:21263      MisBP:0   MisRate:0.00%    MPKI:0.00
PC:47b34     Total:41249      MisBP:0   MisRate:0.00%    MPKI:0.00
PC:2e278     Total:2280      MisBP:0   MisRate:0.00%    MPKI:0.00
PC:42aee     Total:2862      MisBP:0   MisRate:0.00%    MPKI:0.00
PC:47f62     Total:1730      MisBP:0   MisRate:0.00%    MPKI:0.00
PC:336ec     Total:360      MisBP:0   MisRate:0.00%    MPKI:0.00
PC:3e98c     Total:3292      MisBP:0   MisRate:0.00%    MPKI:0.00
PC:158a0     Total:12699      MisBP:0   MisRate:0.00%    MPKI:0.00
PC:99d0c     Total:217      MisBP:0   MisRate:0.00%    MPKI:0.00
PC:332be     Total:21      MisBP:0   MisRate:0.00%    MPKI:0.00
PC:1589c     Total:12708      MisBP:0   MisRate:0.00%    MPKI:0.00
PC:7c390     Total:2      MisBP:0   MisRate:0.00%    MPKI:0.00
PC:3ea2e     Total:5370      MisBP:0   MisRate:0.00%    MPKI:0.00
PC:483ec     Total:1023      MisBP:0   MisRate:0.00%    MPKI:0.00
PC:33360     Total:6      MisBP:0   MisRate:0.00%    MPKI:0.00
PC:47bd6     Total:4311      MisBP:0   MisRate:0.00%    MPKI:0.00
PC:7c39c     Total:2      MisBP:0   MisRate:0.00%    MPKI:0.00
PC:3ea3a     Total:433      MisBP:0   MisRate:0.00%    MPKI:0.00
PC:1594e     Total:59229      MisBP:0   MisRate:0.00%    MPKI:0.00
PC:3e988     Total:3292      MisBP:0   MisRate:0.00%    MPKI:0.00
PC:336dc     Total:421      MisBP:0   MisRate:0.00%    MPKI:0.00
PC:47f52     Total:1794      MisBP:0   MisRate:0.00%    MPKI:0.00
PC:47b20     Total:42645      MisBP:0   MisRate:0.00%    MPKI:0.00
PC:332aa     Total:97      MisBP:0   MisRate:0.00%    MPKI:0.00
PC:42ade     Total:2864      MisBP:0   MisRate:0.00%    MPKI:0.00
PC:2e268     Total:127144      MisBP:0   MisRate:0.00%    MPKI:0.00
PC:336d8     Total:421      MisBP:0   MisRate:0.00%    MPKI:0.00
PC:47f4e     Total:1794      MisBP:0   MisRate:0.00%    MPKI:0.00
PC:47b1c     Total:42661      MisBP:0   MisRate:0.00%    MPKI:0.00
PC:42ada     Total:2864      MisBP:0   MisRate:0.00%    MPKI:0.00
PC:2e264     Total:127144      MisBP:0   MisRate:0.00%    MPKI:0.00
PC:1faaa     Total:173      MisBP:0   MisRate:0.00%    MPKI:0.00
PC:48b96     Total:2      MisBP:0   MisRate:0.00%    MPKI:0.00
PC:15888     Total:13312      MisBP:0   MisRate:0.00%    MPKI:0.00
PC:7c3ae     Total:1      MisBP:0   MisRate:0.00%    MPKI:0.00
PC:3337a     Total:6      MisBP:0   MisRate:0.00%    MPKI:0.00
PC:47bf0     Total:3778      MisBP:0   MisRate:0.00%    MPKI:0.00
PC:7c3ac     Total:2      MisBP:0   MisRate:0.00%    MPKI:0.00
PC:1595e     Total:89877      MisBP:0   MisRate:0.00%    MPKI:0.00
PC:3337c     Total:6      MisBP:0   MisRate:0.00%    MPKI:0.00
PC:47bf2     Total:3778      MisBP:0   MisRate:0.00%    MPKI:0.00
PC:7a69c     Total:75      MisBP:0   MisRate:0.00%    MPKI:0.00
PC:2eaaa     Total:1286      MisBP:0   MisRate:0.00%    MPKI:0.00
PC:2eaa6     Total:1286      MisBP:0   MisRate:0.00%    MPKI:0.00
PC:3ea4c     Total:12747      MisBP:0   MisRate:0.00%    MPKI:0.00
PC:15960     Total:89872      MisBP:0   MisRate:0.00%    MPKI:0.00
PC:4840a     Total:948      MisBP:0   MisRate:0.00%    MPKI:0.00
PC:47bf4     Total:3778      MisBP:0   MisRate:0.00%    MPKI:0.00
PC:3cd3c     Total:624      MisBP:0   MisRate:0.00%    MPKI:0.00
PC:7a69e     Total:75      MisBP:0   MisRate:0.00%    MPKI:0.00
PC:2eaae     Total:1269      MisBP:0   MisRate:0.00%    MPKI:0.00
PC:3e974     Total:2935      MisBP:0   MisRate:0.00%    MPKI:0.00
PC:7a698     Total:103      MisBP:0   MisRate:0.00%    MPKI:0.00
PC:3cd36     Total:2      MisBP:0   MisRate:0.00%    MPKI:0.00
PC:47bee     Total:3778      MisBP:0   MisRate:0.00%    MPKI:0.00
PC:33378     Total:6      MisBP:0   MisRate:0.00%    MPKI:0.00
PC:7c3a8     Total:2      MisBP:0   MisRate:0.00%    MPKI:0.00
PC:7a694     Total:105      MisBP:0   MisRate:0.00%    MPKI:0.00
PC:3cd32     Total:2      MisBP:0   MisRate:0.00%    MPKI:0.00
PC:47bea     Total:3798      MisBP:0   MisRate:0.00%    MPKI:0.00
PC:33374     Total:6      MisBP:0   MisRate:0.00%    MPKI:0.00
PC:48400     Total:961      MisBP:0   MisRate:0.00%    MPKI:0.00
PC:15956     Total:70532      MisBP:0   MisRate:0.00%    MPKI:0.00
PC:7c3a4     Total:2      MisBP:0   MisRate:0.00%    MPKI:0.00
PC:7a68c     Total:105      MisBP:0   MisRate:0.00%    MPKI:0.00
PC:3336c     Total:6      MisBP:0   MisRate:0.00%    MPKI:0.00
PC:483f8     Total:1021      MisBP:0   MisRate:0.00%    MPKI:0.00
PC:47878     Total:8408      MisBP:0   MisRate:0.00%    MPKI:0.00
PC:2e722     Total:292      MisBP:0   MisRate:0.00%    MPKI:0.00
PC:2e2f0     Total:10857      MisBP:0   MisRate:0.00%    MPKI:0.00
PC:19a7a     Total:150614      MisBP:0   MisRate:0.00%    MPKI:0.00
PC:42b66     Total:3      MisBP:0   MisRate:0.00%    MPKI:0.00
PC:155e0     Total:115507      MisBP:0   MisRate:0.00%    MPKI:0.00
PC:47874     Total:8409      MisBP:0   MisRate:0.00%    MPKI:0.00
PC:19eb8     Total:71      MisBP:0   MisRate:0.00%    MPKI:0.00
PC:155e4     Total:115502      MisBP:0   MisRate:0.00%    MPKI:0.00
PC:19eac     Total:94      MisBP:0   MisRate:0.00%    MPKI:0.00
PC:14dce     Total:15189      MisBP:0   MisRate:0.00%    MPKI:0.00
PC:47880     Total:7344      MisBP:0   MisRate:0.00%    MPKI:0.00
PC:1f678     Total:164      MisBP:0   MisRate:0.00%    MPKI:0.00
PC:19ec8     Total:29      MisBP:0   MisRate:0.00%    MPKI:0.00
PC:2e73e     Total:2      MisBP:0   MisRate:0.00%    MPKI:0.00
PC:1f67c     Total:131444      MisBP:0   MisRate:0.00%    MPKI:0.00
PC:19ed4     Total:29      MisBP:0   MisRate:0.00%    MPKI:0.00
PC:2e74a     Total:1      MisBP:0   MisRate:0.00%    MPKI:0.00
PC:14dac     Total:17079      MisBP:0   MisRate:0.00%    MPKI:0.00
PC:47856     Total:8521      MisBP:0   MisRate:0.00%    MPKI:0.00
PC:84d38     Total:41      MisBP:0   MisRate:0.00%    MPKI:0.00
PC:155c2     Total:117281      MisBP:0   MisRate:0.00%    MPKI:0.00
PC:47838     Total:12441      MisBP:0   MisRate:0.00%    MPKI:0.00
PC:99a10     Total:6      MisBP:0   MisRate:0.00%    MPKI:0.00
PC:155a4     Total:45603      MisBP:0   MisRate:0.00%    MPKI:0.00
PC:33256     Total:120      MisBP:0   MisRate:0.00%    MPKI:0.00
PC:47acc     Total:15087      MisBP:0   MisRate:0.00%    MPKI:0.00
PC:1f7b2     Total:1906      MisBP:0   MisRate:0.00%    MPKI:0.00
PC:15590     Total:49236      MisBP:0   MisRate:0.00%    MPKI:0.00
PC:3e67c     Total:1      MisBP:0   MisRate:0.00%    MPKI:0.00
PC:33242     Total:144      MisBP:0   MisRate:0.00%    MPKI:0.00
PC:47ab8     Total:2675      MisBP:0   MisRate:0.00%    MPKI:0.00
PC:1f7a8     Total:1901      MisBP:0   MisRate:0.00%    MPKI:0.00
PC:33066     Total:3      MisBP:0   MisRate:0.00%    MPKI:0.00
PC:478ec     Total:173      MisBP:0   MisRate:0.00%    MPKI:0.00
PC:478e8     Total:173      MisBP:0   MisRate:0.00%    MPKI:0.00
PC:99ac0     Total:217      MisBP:0   MisRate:0.00%    MPKI:0.00
PC:1f876     Total:2241      MisBP:0   MisRate:0.00%    MPKI:0.00
PC:15654     Total:57714      MisBP:0   MisRate:0.00%    MPKI:0.00
PC:1a696     Total:10077      MisBP:0   MisRate:0.00%    MPKI:0.00
PC:14e3c     Total:21555      MisBP:0   MisRate:0.00%    MPKI:0.00
PC:334a2     Total:131      MisBP:0   MisRate:0.00%    MPKI:0.00
PC:478e6     Total:171      MisBP:0   MisRate:0.00%    MPKI:0.00
PC:14e38     Total:21561      MisBP:0   MisRate:0.00%    MPKI:0.00
PC:478e0     Total:171      MisBP:0   MisRate:0.00%    MPKI:0.00
PC:99ab8     Total:21      MisBP:0   MisRate:0.00%    MPKI:0.00
PC:3306a     Total:3      MisBP:0   MisRate:0.00%    MPKI:0.00
PC:478dc     Total:171      MisBP:0   MisRate:0.00%    MPKI:0.00
PC:99ab4     Total:21      MisBP:0   MisRate:0.00%    MPKI:0.00
PC:7c3b2     Total:1      MisBP:0   MisRate:0.00%    MPKI:0.00
PC:2e792     Total:1158      MisBP:0   MisRate:0.00%    MPKI:0.00
PC:19f1c     Total:5      MisBP:0   MisRate:0.00%    MPKI:0.00
PC:14e30     Total:21561      MisBP:0   MisRate:0.00%    MPKI:0.00
PC:478da     Total:171      MisBP:0   MisRate:0.00%    MPKI:0.00
PC:33064     Total:3      MisBP:0   MisRate:0.00%    MPKI:0.00
PC:2e790     Total:588      MisBP:0   MisRate:0.00%    MPKI:0.00
PC:19f1a     Total:5      MisBP:0   MisRate:0.00%    MPKI:0.00
PC:478ca     Total:389      MisBP:0   MisRate:0.00%    MPKI:0.00
PC:99aa2     Total:8      MisBP:0   MisRate:0.00%    MPKI:0.00
PC:33054     Total:3      MisBP:0   MisRate:0.00%    MPKI:0.00
PC:2e780     Total:217      MisBP:0   MisRate:0.00%    MPKI:0.00
PC:478ba     Total:11995      MisBP:0   MisRate:0.00%    MPKI:0.00
PC:47894     Total:54128      MisBP:0   MisRate:0.00%    MPKI:0.00
PC:1f822     Total:1713      MisBP:0   MisRate:0.00%    MPKI:0.00
PC:15600     Total:59397      MisBP:0   MisRate:0.00%    MPKI:0.00
PC:47f8a     Total:962      MisBP:0   MisRate:0.00%    MPKI:0.00
PC:3edda     Total:4723      MisBP:0   MisRate:0.00%    MPKI:0.00
PC:15cee     Total:1055      MisBP:0   MisRate:0.00%    MPKI:0.00
PC:1ad32     Total:47049      MisBP:0   MisRate:0.00%    MPKI:0.00
PC:1ad36     Total:2754      MisBP:0   MisRate:0.00%    MPKI:0.00
PC:15cf6     Total:1010      MisBP:0   MisRate:0.00%    MPKI:0.00
PC:3d8e8     Total:401      MisBP:0   MisRate:0.00%    MPKI:0.00
PC:7b24a     Total:16      MisBP:0   MisRate:0.00%    MPKI:0.00
PC:33714     Total:91      MisBP:0   MisRate:0.00%    MPKI:0.00
PC:1ad2e     Total:47049      MisBP:0   MisRate:0.00%    MPKI:0.00
PC:7c746     Total:2      MisBP:0   MisRate:0.00%    MPKI:0.00
PC:15cf8     Total:5980      MisBP:0   MisRate:0.00%    MPKI:0.00
PC:1ad3a     Total:2715      MisBP:0   MisRate:0.00%    MPKI:0.00
PC:7c74a     Total:2      MisBP:0   MisRate:0.00%    MPKI:0.00
PC:15cfc     Total:878      MisBP:0   MisRate:0.00%    MPKI:0.00
PC:1ad3e     Total:2715      MisBP:0   MisRate:0.00%    MPKI:0.00
PC:7c74c     Total:2      MisBP:0   MisRate:0.00%    MPKI:0.00
PC:3edea     Total:4465      MisBP:0   MisRate:0.00%    MPKI:0.00
PC:15cea     Total:1055      MisBP:0   MisRate:0.00%    MPKI:0.00
PC:3edd6     Total:4723      MisBP:0   MisRate:0.00%    MPKI:0.00
PC:7c738     Total:28      MisBP:0   MisRate:0.00%    MPKI:0.00
PC:1ad2a     Total:47050      MisBP:0   MisRate:0.00%    MPKI:0.00
PC:47f7a     Total:1651      MisBP:0   MisRate:0.00%    MPKI:0.00
PC:33704     Total:91      MisBP:0   MisRate:0.00%    MPKI:0.00
PC:15ce6     Total:1076      MisBP:0   MisRate:0.00%    MPKI:0.00
PC:15cde     Total:1089      MisBP:0   MisRate:0.00%    MPKI:0.00
PC:1ad1a     Total:48567      MisBP:0   MisRate:0.00%    MPKI:0.00
PC:3edc4     Total:2512      MisBP:0   MisRate:0.00%    MPKI:0.00
PC:1ad16     Total:48568      MisBP:0   MisRate:0.00%    MPKI:0.00
PC:15cd4     Total:1184      MisBP:0   MisRate:0.00%    MPKI:0.00
PC:15cc6     Total:1280      MisBP:0   MisRate:0.00%    MPKI:0.00
PC:3edb2     Total:6681      MisBP:0   MisRate:0.00%    MPKI:0.00
PC:1acf0     Total:43693      MisBP:0   MisRate:0.00%    MPKI:0.00
PC:48560     Total:407      MisBP:0   MisRate:0.00%    MPKI:0.00
PC:15d12     Total:30135      MisBP:0   MisRate:0.00%    MPKI:0.00
PC:3d904     Total:1      MisBP:0   MisRate:0.00%    MPKI:0.00
PC:7b266     Total:16      MisBP:0   MisRate:0.00%    MPKI:0.00
PC:1ad54     Total:1016      MisBP:0   MisRate:0.00%    MPKI:0.00
PC:2ebf4     Total:391      MisBP:0   MisRate:0.00%    MPKI:0.00
PC:3eb9c     Total:197      MisBP:0   MisRate:0.00%    MPKI:0.00
PC:15ab0     Total:27234      MisBP:0   MisRate:0.00%    MPKI:0.00
PC:15ab6     Total:27860      MisBP:0   MisRate:0.00%    MPKI:0.00
PC:3edfe     Total:212      MisBP:0   MisRate:0.00%    MPKI:0.00
PC:47d4a     Total:878      MisBP:0   MisRate:0.00%    MPKI:0.00
PC:3ebb0     Total:197      MisBP:0   MisRate:0.00%    MPKI:0.00
PC:15ac4     Total:21995      MisBP:0   MisRate:0.00%    MPKI:0.00
PC:4856e     Total:412      MisBP:0   MisRate:0.00%    MPKI:0.00
PC:334e6     Total:9      MisBP:0   MisRate:0.00%    MPKI:0.00
PC:47d5c     Total:99      MisBP:0   MisRate:0.00%    MPKI:0.00
PC:1a4a0     Total:242      MisBP:0   MisRate:0.00%    MPKI:0.00
PC:15ca6     Total:14051      MisBP:0   MisRate:0.00%    MPKI:0.00
PC:7c760     Total:2      MisBP:0   MisRate:0.00%    MPKI:0.00
PC:1ad50     Total:1016      MisBP:0   MisRate:0.00%    MPKI:0.00
PC:1ad4a     Total:1016      MisBP:0   MisRate:0.00%    MPKI:0.00
PC:2f5c0     Total:5279      MisBP:0   MisRate:0.00%    MPKI:0.00
PC:15d08     Total:30136      MisBP:0   MisRate:0.00%    MPKI:0.00
PC:1ad46     Total:1915      MisBP:0   MisRate:0.00%    MPKI:0.00
PC:15d04     Total:30136      MisBP:0   MisRate:0.00%    MPKI:0.00
PC:3edf0     Total:4384      MisBP:0   MisRate:0.00%    MPKI:0.00
PC:47f94     Total:962      MisBP:0   MisRate:0.00%    MPKI:0.00
PC:3371e     Total:86      MisBP:0   MisRate:0.00%    MPKI:0.00
PC:1ad42     Total:1915      MisBP:0   MisRate:0.00%    MPKI:0.00
PC:15d00     Total:30137      MisBP:0   MisRate:0.00%    MPKI:0.00
PC:1ad40     Total:1915      MisBP:0   MisRate:0.00%    MPKI:0.00
PC:7b252     Total:16      MisBP:0   MisRate:0.00%    MPKI:0.00
PC:15cfe     Total:31086      MisBP:0   MisRate:0.00%    MPKI:0.00
PC:15a7a     Total:46230      MisBP:0   MisRate:0.00%    MPKI:0.00
PC:19a5c     Total:31756      MisBP:0   MisRate:0.00%    MPKI:0.00
PC:42b48     Total:3      MisBP:0   MisRate:0.00%    MPKI:0.00
PC:42b54     Total:3      MisBP:0   MisRate:0.00%    MPKI:0.00
PC:3ccde     Total:1163      MisBP:0   MisRate:0.00%    MPKI:0.00
PC:7a640     Total:11      MisBP:0   MisRate:0.00%    MPKI:0.00
PC:7c362     Total:1      MisBP:0   MisRate:0.00%    MPKI:0.00
PC:15914     Total:563663      MisBP:0   MisRate:0.00%    MPKI:0.00
PC:483be     Total:868      MisBP:0   MisRate:0.00%    MPKI:0.00
PC:7a62c     Total:294      MisBP:0   MisRate:0.00%    MPKI:0.00
PC:33498     Total:131      MisBP:0   MisRate:0.00%    MPKI:0.00
PC:47d0e     Total:4843      MisBP:0   MisRate:0.00%    MPKI:0.00
PC:15a7e     Total:37089      MisBP:0   MisRate:0.00%    MPKI:0.00
PC:48528     Total:958      MisBP:0   MisRate:0.00%    MPKI:0.00
PC:3349c     Total:131      MisBP:0   MisRate:0.00%    MPKI:0.00
PC:47d12     Total:4843      MisBP:0   MisRate:0.00%    MPKI:0.00
PC:47d14     Total:4843      MisBP:0   MisRate:0.00%    MPKI:0.00
PC:2ebcc     Total:1024      MisBP:0   MisRate:0.00%    MPKI:0.00
PC:3ccca     Total:654      MisBP:0   MisRate:0.00%    MPKI:0.00
PC:7a6a6     Total:18      MisBP:0   MisRate:0.00%    MPKI:0.00
PC:47bfc     Total:3776      MisBP:0   MisRate:0.00%    MPKI:0.00
PC:48412     Total:983      MisBP:0   MisRate:0.00%    MPKI:0.00
PC:15968     Total:98776      MisBP:0   MisRate:0.00%    MPKI:0.00
PC:3ea54     Total:12733      MisBP:0   MisRate:0.00%    MPKI:0.00
PC:2eab2     Total:8432      MisBP:0   MisRate:0.00%    MPKI:0.00
PC:7a6a4     Total:18      MisBP:0   MisRate:0.00%    MPKI:0.00
PC:3cd42     Total:579      MisBP:0   MisRate:0.00%    MPKI:0.00
PC:47bfa     Total:3776      MisBP:0   MisRate:0.00%    MPKI:0.00
PC:33384     Total:2      MisBP:0   MisRate:0.00%    MPKI:0.00
PC:3cd40     Total:579      MisBP:0   MisRate:0.00%    MPKI:0.00
PC:47bf8     Total:3776      MisBP:0   MisRate:0.00%    MPKI:0.00
PC:4840e     Total:948      MisBP:0   MisRate:0.00%    MPKI:0.00
PC:3ea50     Total:12744      MisBP:0   MisRate:0.00%    MPKI:0.00
PC:2ebd8     Total:887      MisBP:0   MisRate:0.00%    MPKI:0.00
PC:3ed92     Total:1      MisBP:0   MisRate:0.00%    MPKI:0.00
PC:15aa6     Total:30464      MisBP:0   MisRate:0.00%    MPKI:0.00
PC:2ebf0     Total:391      MisBP:0   MisRate:0.00%    MPKI:0.00
PC:15aa0     Total:30477      MisBP:0   MisRate:0.00%    MPKI:0.00
PC:3eb8c     Total:206      MisBP:0   MisRate:0.00%    MPKI:0.00
PC:2ebea     Total:432      MisBP:0   MisRate:0.00%    MPKI:0.00
PC:47d30     Total:5880      MisBP:0   MisRate:0.00%    MPKI:0.00
PC:334ba     Total:17283      MisBP:0   MisRate:0.00%    MPKI:0.00
PC:15a9c     Total:30477      MisBP:0   MisRate:0.00%    MPKI:0.00
PC:2ebe6     Total:448      MisBP:0   MisRate:0.00%    MPKI:0.00
PC:47d2c     Total:5915      MisBP:0   MisRate:0.00%    MPKI:0.00
PC:15a98     Total:30504      MisBP:0   MisRate:0.00%    MPKI:0.00
PC:2ebda     Total:887      MisBP:0   MisRate:0.00%    MPKI:0.00
PC:15a8e     Total:37075      MisBP:0   MisRate:0.00%    MPKI:0.00
PC:3eb7a     Total:4810      MisBP:0   MisRate:0.00%    MPKI:0.00
PC:84cfc     Total:93      MisBP:0   MisRate:0.00%    MPKI:0.00
PC:47d1e     Total:4959      MisBP:0   MisRate:0.00%    MPKI:0.00
PC:334a8     Total:498      MisBP:0   MisRate:0.00%    MPKI:0.00
PC:48534     Total:809      MisBP:0   MisRate:0.00%    MPKI:0.00
PC:15a8a     Total:37078      MisBP:0   MisRate:0.00%    MPKI:0.00
PC:3eb76     Total:4810      MisBP:0   MisRate:0.00%    MPKI:0.00
PC:2ebd4     Total:915      MisBP:0   MisRate:0.00%    MPKI:0.00
PC:48532     Total:810      MisBP:0   MisRate:0.00%    MPKI:0.00
PC:5cda8     Total:40      MisBP:0   MisRate:0.00%    MPKI:0.00
PC:15a88     Total:37084      MisBP:0   MisRate:0.00%    MPKI:0.00
PC:47d1a     Total:4960      MisBP:0   MisRate:0.00%    MPKI:0.00
PC:5cda6     Total:8      MisBP:0   MisRate:0.00%    MPKI:0.00
PC:15a86     Total:37084      MisBP:0   MisRate:0.00%    MPKI:0.00
PC:3eb72     Total:4359      MisBP:0   MisRate:0.00%    MPKI:0.00
PC:15a82     Total:37088      MisBP:0   MisRate:0.00%    MPKI:0.00
PC:3eb6e     Total:4363      MisBP:0   MisRate:0.00%    MPKI:0.00
PC:16e2e     Total:4269      MisBP:0   MisRate:0.00%    MPKI:0.00
PC:3e894     Total:2767      MisBP:0   MisRate:0.00%    MPKI:0.00
PC:157a8     Total:64803      MisBP:0   MisRate:0.00%    MPKI:0.00
PC:9e4c0     Total:32911      MisBP:0   MisRate:0.00%    MPKI:0.00
PC:16e02     Total:1032      MisBP:0   MisRate:0.00%    MPKI:0.00
PC:920de     Total:2437      MisBP:0   MisRate:0.00%    MPKI:0.00
PC:16e1a     Total:4404      MisBP:0   MisRate:0.00%    MPKI:0.00
PC:9e510     Total:34258      MisBP:0   MisRate:0.00%    MPKI:0.00
PC:920f2     Total:290      MisBP:0   MisRate:0.00%    MPKI:0.00
PC:1a7ea     Total:2838      MisBP:0   MisRate:0.00%    MPKI:0.00
PC:16e32     Total:4269      MisBP:0   MisRate:0.00%    MPKI:0.00
PC:9e528     Total:75701      MisBP:0   MisRate:0.00%    MPKI:0.00
PC:16e36     Total:4259      MisBP:0   MisRate:0.00%    MPKI:0.00
PC:165d2     Total:15781      MisBP:0   MisRate:0.00%    MPKI:0.00
PC:3f6be     Total:6989      MisBP:0   MisRate:0.00%    MPKI:0.00
PC:9e52c     Total:37806      MisBP:0   MisRate:0.00%    MPKI:0.00
PC:9e530     Total:75610      MisBP:0   MisRate:0.00%    MPKI:0.00
PC:3e8a8     Total:353      MisBP:0   MisRate:0.00%    MPKI:0.00
PC:1578c     Total:66469      MisBP:0   MisRate:0.00%    MPKI:0.00
PC:14f60     Total:92449      MisBP:0   MisRate:0.00%    MPKI:0.00
PC:3e04c     Total:205      MisBP:0   MisRate:0.00%    MPKI:0.00
PC:47a0a     Total:2669      MisBP:0   MisRate:0.00%    MPKI:0.00
PC:99be2     Total:43      MisBP:0   MisRate:0.00%    MPKI:0.00
PC:14f5c     Total:92450      MisBP:0   MisRate:0.00%    MPKI:0.00
PC:3e048     Total:205      MisBP:0   MisRate:0.00%    MPKI:0.00
PC:47a06     Total:2669      MisBP:0   MisRate:0.00%    MPKI:0.00
PC:99bde     Total:43      MisBP:0   MisRate:0.00%    MPKI:0.00
PC:14f58     Total:33571      MisBP:0   MisRate:0.00%    MPKI:0.00
PC:3e044     Total:410      MisBP:0   MisRate:0.00%    MPKI:0.00
PC:47a02     Total:2669      MisBP:0   MisRate:0.00%    MPKI:0.00
PC:2e8b8     Total:164      MisBP:0   MisRate:0.00%    MPKI:0.00
PC:14f54     Total:33571      MisBP:0   MisRate:0.00%    MPKI:0.00
PC:335ba     Total:379      MisBP:0   MisRate:0.00%    MPKI:0.00
PC:4779c     Total:9550      MisBP:0   MisRate:0.00%    MPKI:0.00
PC:334bc     Total:17283      MisBP:0   MisRate:0.00%    MPKI:0.00
PC:1a860     Total:5057      MisBP:0   MisRate:0.00%    MPKI:0.00
PC:1a42e     Total:254      MisBP:0   MisRate:0.00%    MPKI:0.00
PC:2eca4     Total:99      MisBP:0   MisRate:0.00%    MPKI:0.00
PC:3e90a     Total:11126      MisBP:0   MisRate:0.00%    MPKI:0.00
PC:1581e     Total:20074      MisBP:0   MisRate:0.00%    MPKI:0.00
PC:48b2c     Total:977      MisBP:0   MisRate:0.00%    MPKI:0.00
PC:1fa40     Total:254      MisBP:0   MisRate:0.00%    MPKI:0.00
PC:28a36     Total:135080      MisBP:0   MisRate:0.00%    MPKI:0.00
PC:3c8e4     Total:3565      MisBP:0   MisRate:0.00%    MPKI:0.00
PC:477a2     Total:9566      MisBP:0   MisRate:0.00%    MPKI:0.00
PC:3c8ea     Total:23020      MisBP:0   MisRate:0.00%    MPKI:0.00
PC:7a24c     Total:129      MisBP:0   MisRate:0.00%    MPKI:0.00
PC:477ac     Total:8814      MisBP:0   MisRate:0.00%    MPKI:0.00
PC:3c8f4     Total:20448      MisBP:0   MisRate:0.00%    MPKI:0.00
PC:7a256     Total:94      MisBP:0   MisRate:0.00%    MPKI:0.00
PC:47e30     Total:1      MisBP:0   MisRate:0.00%    MPKI:0.00
PC:3d2ac     Total:593      MisBP:0   MisRate:0.00%    MPKI:0.00
PC:33656     Total:147      MisBP:0   MisRate:0.00%    MPKI:0.00
PC:47ecc     Total:1272      MisBP:0   MisRate:0.00%    MPKI:0.00
PC:47a9a     Total:2617      MisBP:0   MisRate:0.00%    MPKI:0.00
PC:33224     Total:155      MisBP:0   MisRate:0.00%    MPKI:0.00
PC:2ec8c     Total:123      MisBP:0   MisRate:0.00%    MPKI:0.00
PC:1a416     Total:272      MisBP:0   MisRate:0.00%    MPKI:0.00
PC:1a848     Total:2398      MisBP:0   MisRate:0.00%    MPKI:0.00
PC:15802     Total:20458      MisBP:0   MisRate:0.00%    MPKI:0.00
PC:3e8ee     Total:15346      MisBP:0   MisRate:0.00%    MPKI:0.00
PC:2ec88     Total:123      MisBP:0   MisRate:0.00%    MPKI:0.00
PC:1a412     Total:272      MisBP:0   MisRate:0.00%    MPKI:0.00
PC:1a844     Total:2399      MisBP:0   MisRate:0.00%    MPKI:0.00
PC:48aca     Total:776      MisBP:0   MisRate:0.00%    MPKI:0.00
PC:157bc     Total:73436      MisBP:0   MisRate:0.00%    MPKI:0.00
PC:1c80c     Total:42654      MisBP:0   MisRate:0.00%    MPKI:0.00
PC:49a4c     Total:304      MisBP:0   MisRate:0.00%    MPKI:0.00
PC:72b44     Total:2      MisBP:0   MisRate:0.00%    MPKI:0.00
PC:49a58     Total:301      MisBP:0   MisRate:0.00%    MPKI:0.00
PC:1c808     Total:42657      MisBP:0   MisRate:0.00%    MPKI:0.00
PC:49a5a     Total:301      MisBP:0   MisRate:0.00%    MPKI:0.00
PC:72b48     Total:2      MisBP:0   MisRate:0.00%    MPKI:0.00
PC:49a5c     Total:301      MisBP:0   MisRate:0.00%    MPKI:0.00
PC:16fb2     Total:6607      MisBP:0   MisRate:0.00%    MPKI:0.00
PC:192a8     Total:97759      MisBP:0   MisRate:0.00%    MPKI:0.00
PC:49a5e     Total:301      MisBP:0   MisRate:0.00%    MPKI:0.00
PC:72b4c     Total:2      MisBP:0   MisRate:0.00%    MPKI:0.00
PC:49a60     Total:301      MisBP:0   MisRate:0.00%    MPKI:0.00
PC:400a2     Total:557      MisBP:0   MisRate:0.00%    MPKI:0.00
PC:16fb6     Total:6410      MisBP:0   MisRate:0.00%    MPKI:0.00
PC:49a64     Total:392      MisBP:0   MisRate:0.00%    MPKI:0.00
PC:7c156     Total:84      MisBP:0   MisRate:0.00%    MPKI:0.00
PC:3e7f4     Total:16780      MisBP:0   MisRate:0.00%    MPKI:0.00
PC:42394     Total:230      MisBP:0   MisRate:0.00%    MPKI:0.00
PC:192a4     Total:97842      MisBP:0   MisRate:0.00%    MPKI:0.00
PC:42390     Total:242      MisBP:0   MisRate:0.00%    MPKI:0.00
PC:190b6     Total:48754      MisBP:0   MisRate:0.00%    MPKI:0.00
PC:421a2     Total:1      MisBP:0   MisRate:0.00%    MPKI:0.00
PC:4193e     Total:16      MisBP:0   MisRate:0.00%    MPKI:0.00
PC:1972e     Total:71523      MisBP:0   MisRate:0.00%    MPKI:0.00
PC:795c8     Total:190      MisBP:0   MisRate:0.00%    MPKI:0.00
PC:5ffa2     Total:156      MisBP:0   MisRate:0.00%    MPKI:0.00
PC:2d4f8     Total:711      MisBP:0   MisRate:0.00%    MPKI:0.00
PC:41d6e     Total:725      MisBP:0   MisRate:0.00%    MPKI:0.00
PC:4193c     Total:13      MisBP:0   MisRate:0.00%    MPKI:0.00
PC:18850     Total:6997      MisBP:0   MisRate:0.00%    MPKI:0.00
PC:41fb4     Total:220      MisBP:0   MisRate:0.00%    MPKI:0.00
PC:1972c     Total:72092      MisBP:0   MisRate:0.00%    MPKI:0.00
PC:3317c     Total:31      MisBP:0   MisRate:0.00%    MPKI:0.00
PC:479fe     Total:2816      MisBP:0   MisRate:0.00%    MPKI:0.00
PC:1576a     Total:85429      MisBP:0   MisRate:0.00%    MPKI:0.00
PC:3e856     Total:2682      MisBP:0   MisRate:0.00%    MPKI:0.00
PC:2e8b4     Total:164      MisBP:0   MisRate:0.00%    MPKI:0.00
PC:14f4c     Total:33571      MisBP:0   MisRate:0.00%    MPKI:0.00
PC:335b2     Total:379      MisBP:0   MisRate:0.00%    MPKI:0.00
PC:47e28     Total:1      MisBP:0   MisRate:0.00%    MPKI:0.00
PC:479f6     Total:2821      MisBP:0   MisRate:0.00%    MPKI:0.00
PC:99bce     Total:43      MisBP:0   MisRate:0.00%    MPKI:0.00
PC:2e8ac     Total:164      MisBP:0   MisRate:0.00%    MPKI:0.00
PC:1a036     Total:6942      MisBP:0   MisRate:0.00%    MPKI:0.00
PC:14f48     Total:33571      MisBP:0   MisRate:0.00%    MPKI:0.00
PC:3e034     Total:27      MisBP:0   MisRate:0.00%    MPKI:0.00
PC:335ae     Total:379      MisBP:0   MisRate:0.00%    MPKI:0.00
PC:479f2     Total:2927      MisBP:0   MisRate:0.00%    MPKI:0.00
PC:19dfe     Total:528      MisBP:0   MisRate:0.00%    MPKI:0.00
PC:99bca     Total:43      MisBP:0   MisRate:0.00%    MPKI:0.00
PC:2e8a8     Total:165      MisBP:0   MisRate:0.00%    MPKI:0.00
PC:1a032     Total:5261      MisBP:0   MisRate:0.00%    MPKI:0.00
PC:335a0     Total:126      MisBP:0   MisRate:0.00%    MPKI:0.00
PC:47e16     Total:1      MisBP:0   MisRate:0.00%    MPKI:0.00
PC:7b984     Total:81      MisBP:0   MisRate:0.00%    MPKI:0.00
PC:3359c     Total:161      MisBP:0   MisRate:0.00%    MPKI:0.00
PC:47e12     Total:1      MisBP:0   MisRate:0.00%    MPKI:0.00
PC:2e896     Total:165      MisBP:0   MisRate:0.00%    MPKI:0.00
PC:1a020     Total:17      MisBP:0   MisRate:0.00%    MPKI:0.00
PC:16fbc     Total:6345      MisBP:0   MisRate:0.00%    MPKI:0.00
PC:49a66     Total:1568      MisBP:0   MisRate:0.00%    MPKI:0.00
PC:72b52     Total:6      MisBP:0   MisRate:0.00%    MPKI:0.00
PC:1c814     Total:42653      MisBP:0   MisRate:0.00%    MPKI:0.00
PC:15708     Total:69759      MisBP:0   MisRate:0.00%    MPKI:0.00
PC:2e87a     Total:3303      MisBP:0   MisRate:0.00%    MPKI:0.00
PC:19fee     Total:404      MisBP:0   MisRate:0.00%    MPKI:0.00
PC:2e864     Total:274099      MisBP:0   MisRate:0.00%    MPKI:0.00
PC:7c168     Total:84      MisBP:0   MisRate:0.00%    MPKI:0.00
PC:3e806     Total:14237      MisBP:0   MisRate:0.00%    MPKI:0.00
PC:1571a     Total:114646      MisBP:0   MisRate:0.00%    MPKI:0.00
PC:48a28     Total:3      MisBP:0   MisRate:0.00%    MPKI:0.00
PC:9ac00     Total:1      MisBP:0   MisRate:0.00%    MPKI:0.00
PC:1f93c     Total:3229      MisBP:0   MisRate:0.00%    MPKI:0.00
PC:101f8     Total:40      MisBP:0   MisRate:0.00%    MPKI:0.00
PC:10214     Total:14      MisBP:0   MisRate:0.00%    MPKI:0.00
PC:3e81c     Total:12994      MisBP:0   MisRate:0.00%    MPKI:0.00
PC:15730     Total:97388      MisBP:0   MisRate:0.00%    MPKI:0.00
PC:10218     Total:14      MisBP:0   MisRate:0.00%    MPKI:0.00
PC:3e820     Total:16088      MisBP:0   MisRate:0.00%    MPKI:0.00
PC:15734     Total:95881      MisBP:0   MisRate:0.00%    MPKI:0.00
PC:9ac1a     Total:53      MisBP:0   MisRate:0.00%    MPKI:0.00
PC:1f956     Total:7621      MisBP:0   MisRate:0.00%    MPKI:0.00
PC:2e85e     Total:274108      MisBP:0   MisRate:0.00%    MPKI:0.00
PC:19fe8     Total:421      MisBP:0   MisRate:0.00%    MPKI:0.00
PC:1a752     Total:6310      MisBP:0   MisRate:0.00%    MPKI:0.00
PC:101f4     Total:80      MisBP:0   MisRate:0.00%    MPKI:0.00
PC:2e85a     Total:775      MisBP:0   MisRate:0.00%    MPKI:0.00
PC:19fe4     Total:421      MisBP:0   MisRate:0.00%    MPKI:0.00
PC:1f8e0     Total:730      MisBP:0   MisRate:0.00%    MPKI:0.00
PC:156be     Total:229087      MisBP:0   MisRate:0.00%    MPKI:0.00
PC:3e7aa     Total:11173      MisBP:0   MisRate:0.00%    MPKI:0.00
PC:156ba     Total:229117      MisBP:0   MisRate:0.00%    MPKI:0.00
PC:3e7a6     Total:61      MisBP:0   MisRate:0.00%    MPKI:0.00
PC:7c108     Total:38      MisBP:0   MisRate:0.00%    MPKI:0.00
PC:156b4     Total:255329      MisBP:0   MisRate:0.00%    MPKI:0.00
PC:3e7a0     Total:285      MisBP:0   MisRate:0.00%    MPKI:0.00
PC:29194     Total:1447      MisBP:0   MisRate:0.00%    MPKI:0.00
PC:33220     Total:155      MisBP:0   MisRate:0.00%    MPKI:0.00
PC:32b24     Total:15      MisBP:0   MisRate:0.00%    MPKI:0.00
PC:15586     Total:49291      MisBP:0   MisRate:0.00%    MPKI:0.00
PC:3e672     Total:1      MisBP:0   MisRate:0.00%    MPKI:0.00
PC:3da18     Total:8      MisBP:0   MisRate:0.00%    MPKI:0.00
PC:1f796     Total:1932      MisBP:0   MisRate:0.00%    MPKI:0.00
PC:15574     Total:51435      MisBP:0   MisRate:0.00%    MPKI:0.00
PC:3e660     Total:4      MisBP:0   MisRate:0.00%    MPKI:0.00
PC:7a2ac     Total:83      MisBP:0   MisRate:0.00%    MPKI:0.00
PC:2919c     Total:1442      MisBP:0   MisRate:0.00%    MPKI:0.00
PC:3da12     Total:2      MisBP:0   MisRate:0.00%    MPKI:0.00
PC:1f790     Total:3911      MisBP:0   MisRate:0.00%    MPKI:0.00
PC:84ce4     Total:95      MisBP:0   MisRate:0.00%    MPKI:0.00
PC:32b0c     Total:15      MisBP:0   MisRate:0.00%    MPKI:0.00
PC:1556e     Total:52888      MisBP:0   MisRate:0.00%    MPKI:0.00
PC:3e65a     Total:4      MisBP:0   MisRate:0.00%    MPKI:0.00
PC:3da0a     Total:2      MisBP:0   MisRate:0.00%    MPKI:0.00
PC:47a96     Total:2617      MisBP:0   MisRate:0.00%    MPKI:0.00
PC:1bddc     Total:11166      MisBP:0   MisRate:0.00%    MPKI:0.00
PC:301c6     Total:251      MisBP:0   MisRate:0.00%    MPKI:0.00
PC:1b950     Total:50516      MisBP:0   MisRate:0.00%    MPKI:0.00
PC:1a78c     Total:9201      MisBP:0   MisRate:0.00%    MPKI:0.00
PC:1f96c     Total:16      MisBP:0   MisRate:0.00%    MPKI:0.00
PC:9ac30     Total:51      MisBP:0   MisRate:0.00%    MPKI:0.00
PC:48a58     Total:2      MisBP:0   MisRate:0.00%    MPKI:0.00
PC:1574a     Total:89906      MisBP:0   MisRate:0.00%    MPKI:0.00
PC:3e836     Total:3518      MisBP:0   MisRate:0.00%    MPKI:0.00
PC:1a01e     Total:17      MisBP:0   MisRate:0.00%    MPKI:0.00
PC:2ebc8     Total:1021      MisBP:0   MisRate:0.00%    MPKI:0.00
PC:1a784     Total:15020      MisBP:0   MisRate:0.00%    MPKI:0.00
PC:15742     Total:89911      MisBP:0   MisRate:0.00%    MPKI:0.00
PC:1a016     Total:18      MisBP:0   MisRate:0.00%    MPKI:0.00
PC:3e638     Total:12      MisBP:0   MisRate:0.00%    MPKI:0.00
PC:32ae6     Total:4      MisBP:0   MisRate:0.00%    MPKI:0.00
PC:99534     Total:229      MisBP:0   MisRate:0.00%    MPKI:0.00
PC:84cbe     Total:101      MisBP:0   MisRate:0.00%    MPKI:0.00
PC:1f76a     Total:7399      MisBP:0   MisRate:0.00%    MPKI:0.00
PC:999b4     Total:217      MisBP:0   MisRate:0.00%    MPKI:0.00
PC:477dc     Total:6882      MisBP:0   MisRate:0.00%    MPKI:0.00
PC:3d9ec     Total:58      MisBP:0   MisRate:0.00%    MPKI:0.00
PC:7a286     Total:107      MisBP:0   MisRate:0.00%    MPKI:0.00
PC:15548     Total:56512      MisBP:0   MisRate:0.00%    MPKI:0.00
PC:1554c     Total:56511      MisBP:0   MisRate:0.00%    MPKI:0.00
PC:32aea     Total:4      MisBP:0   MisRate:0.00%    MPKI:0.00
PC:84cc2     Total:101      MisBP:0   MisRate:0.00%    MPKI:0.00
PC:1f76e     Total:7399      MisBP:0   MisRate:0.00%    MPKI:0.00
PC:33bb2     Total:106      MisBP:0   MisRate:0.00%    MPKI:0.00
PC:999b8     Total:217      MisBP:0   MisRate:0.00%    MPKI:0.00
PC:477e0     Total:6882      MisBP:0   MisRate:0.00%    MPKI:0.00
PC:3d9f0     Total:58      MisBP:0   MisRate:0.00%    MPKI:0.00
PC:3e634     Total:12      MisBP:0   MisRate:0.00%    MPKI:0.00
PC:7a282     Total:107      MisBP:0   MisRate:0.00%    MPKI:0.00
PC:29172     Total:379      MisBP:0   MisRate:0.00%    MPKI:0.00
PC:3d9e8     Total:406      MisBP:0   MisRate:0.00%    MPKI:0.00
PC:477d8     Total:6882      MisBP:0   MisRate:0.00%    MPKI:0.00
PC:32f62     Total:1      MisBP:0   MisRate:0.00%    MPKI:0.00
PC:33baa     Total:583      MisBP:0   MisRate:0.00%    MPKI:0.00
PC:3e630     Total:16      MisBP:0   MisRate:0.00%    MPKI:0.00
PC:33ba4     Total:184      MisBP:0   MisRate:0.00%    MPKI:0.00
PC:1f760     Total:2533      MisBP:0   MisRate:0.00%    MPKI:0.00
PC:84cb4     Total:211      MisBP:0   MisRate:0.00%    MPKI:0.00
PC:32adc     Total:4      MisBP:0   MisRate:0.00%    MPKI:0.00
PC:1553e     Total:115596      MisBP:0   MisRate:0.00%    MPKI:0.00
PC:1f74c     Total:2114      MisBP:0   MisRate:0.00%    MPKI:0.00
PC:1552a     Total:246080      MisBP:0   MisRate:0.00%    MPKI:0.00
PC:51872     Total:3886      MisBP:0   MisRate:0.00%    MPKI:0.00
PC:999d2     Total:7      MisBP:0   MisRate:0.00%    MPKI:0.00
PC:84cdc     Total:95      MisBP:0   MisRate:0.00%    MPKI:0.00
PC:99552     Total:34      MisBP:0   MisRate:0.00%    MPKI:0.00
PC:32b04     Total:19      MisBP:0   MisRate:0.00%    MPKI:0.00
PC:15566     Total:52932      MisBP:0   MisRate:0.00%    MPKI:0.00
PC:3e652     Total:4      MisBP:0   MisRate:0.00%    MPKI:0.00
PC:33218     Total:156      MisBP:0   MisRate:0.00%    MPKI:0.00
PC:7a298     Total:107      MisBP:0   MisRate:0.00%    MPKI:0.00
PC:29188     Total:535      MisBP:0   MisRate:0.00%    MPKI:0.00
PC:3d9fe     Total:55      MisBP:0   MisRate:0.00%    MPKI:0.00
PC:1f77c     Total:5365      MisBP:0   MisRate:0.00%    MPKI:0.00
PC:1555a     Total:54865      MisBP:0   MisRate:0.00%    MPKI:0.00
PC:3e646     Total:3      MisBP:0   MisRate:0.00%    MPKI:0.00
PC:3320c     Total:156      MisBP:0   MisRate:0.00%    MPKI:0.00
PC:47a82     Total:2625      MisBP:0   MisRate:0.00%    MPKI:0.00
PC:2ce96     Total:20974      MisBP:0   MisRate:0.00%    MPKI:0.00
PC:3cffc     Total:2558      MisBP:0   MisRate:0.00%    MPKI:0.00
PC:29184     Total:535      MisBP:0   MisRate:0.00%    MPKI:0.00
PC:3d9fa     Total:56      MisBP:0   MisRate:0.00%    MPKI:0.00
PC:477ea     Total:8852      MisBP:0   MisRate:0.00%    MPKI:0.00
PC:999c2     Total:217      MisBP:0   MisRate:0.00%    MPKI:0.00
PC:32f74     Total:1      MisBP:0   MisRate:0.00%    MPKI:0.00
PC:84ccc     Total:101      MisBP:0   MisRate:0.00%    MPKI:0.00
PC:99542     Total:225      MisBP:0   MisRate:0.00%    MPKI:0.00
PC:32af4     Total:97      MisBP:0   MisRate:0.00%    MPKI:0.00
PC:15556     Total:555426      MisBP:0   MisRate:0.00%    MPKI:0.00
PC:3e642     Total:3      MisBP:0   MisRate:0.00%    MPKI:0.00
PC:33208     Total:156      MisBP:0   MisRate:0.00%    MPKI:0.00
PC:47a7e     Total:2625      MisBP:0   MisRate:0.00%    MPKI:0.00
PC:7a28a     Total:107      MisBP:0   MisRate:0.00%    MPKI:0.00
PC:2917a     Total:686      MisBP:0   MisRate:0.00%    MPKI:0.00
PC:14f42     Total:33571      MisBP:0   MisRate:0.00%    MPKI:0.00
PC:9ac3c     Total:51      MisBP:0   MisRate:0.00%    MPKI:0.00
PC:1f978     Total:15      MisBP:0   MisRate:0.00%    MPKI:0.00
PC:1a02c     Total:5114      MisBP:0   MisRate:0.00%    MPKI:0.00
PC:2e8a2     Total:165      MisBP:0   MisRate:0.00%    MPKI:0.00
PC:47e1e     Total:1      MisBP:0   MisRate:0.00%    MPKI:0.00
PC:335a8     Total:126      MisBP:0   MisRate:0.00%    MPKI:0.00
PC:3e02e     Total:7      MisBP:0   MisRate:0.00%    MPKI:0.00
PC:7b990     Total:31      MisBP:0   MisRate:0.00%    MPKI:0.00
PC:48a64     Total:2      MisBP:0   MisRate:0.00%    MPKI:0.00
PC:3e844     Total:2706      MisBP:0   MisRate:0.00%    MPKI:0.00
PC:15758     Total:85558      MisBP:0   MisRate:0.00%    MPKI:0.00
PC:48a66     Total:2      MisBP:0   MisRate:0.00%    MPKI:0.00
PC:1f97a     Total:15      MisBP:0   MisRate:0.00%    MPKI:0.00
PC:3317a     Total:31      MisBP:0   MisRate:0.00%    MPKI:0.00
PC:479f0     Total:2927      MisBP:0   MisRate:0.00%    MPKI:0.00
PC:3e032     Total:7      MisBP:0   MisRate:0.00%    MPKI:0.00
PC:7b994     Total:28      MisBP:0   MisRate:0.00%    MPKI:0.00
PC:15756     Total:89851      MisBP:0   MisRate:0.00%    MPKI:0.00
PC:3e842     Total:2706      MisBP:0   MisRate:0.00%    MPKI:0.00
PC:2e8a0     Total:165      MisBP:0   MisRate:0.00%    MPKI:0.00
PC:1a02a     Total:17      MisBP:0   MisRate:0.00%    MPKI:0.00
PC:1f976     Total:15      MisBP:0   MisRate:0.00%    MPKI:0.00
PC:9ac3a     Total:51      MisBP:0   MisRate:0.00%    MPKI:0.00
PC:48a62     Total:2      MisBP:0   MisRate:0.00%    MPKI:0.00
PC:15754     Total:89863      MisBP:0   MisRate:0.00%    MPKI:0.00
PC:3e840     Total:2708      MisBP:0   MisRate:0.00%    MPKI:0.00
PC:14f3e     Total:33572      MisBP:0   MisRate:0.00%    MPKI:0.00
PC:7b98c     Total:31      MisBP:0   MisRate:0.00%    MPKI:0.00
PC:1f974     Total:15      MisBP:0   MisRate:0.00%    MPKI:0.00
PC:9ac38     Total:51      MisBP:0   MisRate:0.00%    MPKI:0.00
PC:48a60     Total:2      MisBP:0   MisRate:0.00%    MPKI:0.00
PC:15752     Total:89885      MisBP:0   MisRate:0.00%    MPKI:0.00
PC:47a00     Total:2669      MisBP:0   MisRate:0.00%    MPKI:0.00
PC:99bd2     Total:43      MisBP:0   MisRate:0.00%    MPKI:0.00
PC:479fa     Total:2816      MisBP:0   MisRate:0.00%    MPKI:0.00
PC:47e2c     Total:1      MisBP:0   MisRate:0.00%    MPKI:0.00
PC:335b6     Total:379      MisBP:0   MisRate:0.00%    MPKI:0.00
PC:7b99e     Total:15      MisBP:0   MisRate:0.00%    MPKI:0.00
PC:14f50     Total:33571      MisBP:0   MisRate:0.00%    MPKI:0.00
PC:15766     Total:85493      MisBP:0   MisRate:0.00%    MPKI:0.00
PC:99bd8     Total:43      MisBP:0   MisRate:0.00%    MPKI:0.00
PC:2e8b0     Total:164      MisBP:0   MisRate:0.00%    MPKI:0.00
PC:47e32     Total:1      MisBP:0   MisRate:0.00%    MPKI:0.00
PC:335bc     Total:491      MisBP:0   MisRate:0.00%    MPKI:0.00
PC:3e858     Total:2680      MisBP:0   MisRate:0.00%    MPKI:0.00
PC:1576c     Total:85406      MisBP:0   MisRate:0.00%    MPKI:0.00
PC:3e792     Total:12      MisBP:0   MisRate:0.00%    MPKI:0.00
PC:156a6     Total:255789      MisBP:0   MisRate:0.00%    MPKI:0.00
PC:1f8c8     Total:855      MisBP:0   MisRate:0.00%    MPKI:0.00
PC:3e83e     Total:3518      MisBP:0   MisRate:0.00%    MPKI:0.00
PC:15764     Total:85498      MisBP:0   MisRate:0.00%    MPKI:0.00
PC:3e850     Total:2702      MisBP:0   MisRate:0.00%    MPKI:0.00
PC:335b4     Total:379      MisBP:0   MisRate:0.00%    MPKI:0.00
PC:47e2a     Total:1      MisBP:0   MisRate:0.00%    MPKI:0.00
PC:479f8     Total:2821      MisBP:0   MisRate:0.00%    MPKI:0.00
PC:99bd0     Total:43      MisBP:0   MisRate:0.00%    MPKI:0.00
PC:2e8ae     Total:164      MisBP:0   MisRate:0.00%    MPKI:0.00
PC:15760     Total:85511      MisBP:0   MisRate:0.00%    MPKI:0.00
PC:3e84c     Total:2705      MisBP:0   MisRate:0.00%    MPKI:0.00
PC:2e8aa     Total:165      MisBP:0   MisRate:0.00%    MPKI:0.00
PC:1f97e     Total:15      MisBP:0   MisRate:0.00%    MPKI:0.00
PC:48a6a     Total:10      MisBP:0   MisRate:0.00%    MPKI:0.00
PC:1575c     Total:85540      MisBP:0   MisRate:0.00%    MPKI:0.00
PC:3e848     Total:2706      MisBP:0   MisRate:0.00%    MPKI:0.00
PC:14f46     Total:33571      MisBP:0   MisRate:0.00%    MPKI:0.00
PC:2e24a     Total:591      MisBP:0   MisRate:0.00%    MPKI:0.00
PC:84c92     Total:431      MisBP:0   MisRate:0.00%    MPKI:0.00
PC:1f73e     Total:2677      MisBP:0   MisRate:0.00%    MPKI:0.00
PC:2e66a     Total:1052      MisBP:0   MisRate:0.00%    MPKI:0.00
PC:15520     Total:123149      MisBP:0   MisRate:0.00%    MPKI:0.00
PC:1f742     Total:2677      MisBP:0   MisRate:0.00%    MPKI:0.00
PC:15530     Total:119951      MisBP:0   MisRate:0.00%    MPKI:0.00
PC:19e06     Total:106      MisBP:0   MisRate:0.00%    MPKI:0.00
PC:2e67c     Total:1      MisBP:0   MisRate:0.00%    MPKI:0.00
PC:32aba     Total:8      MisBP:0   MisRate:0.00%    MPKI:0.00
PC:199d4     Total:103963      MisBP:0   MisRate:0.00%    MPKI:0.00
PC:42ac0     Total:180      MisBP:0   MisRate:0.00%    MPKI:0.00
PC:15532     Total:119930      MisBP:0   MisRate:0.00%    MPKI:0.00
PC:32ad0     Total:4      MisBP:0   MisRate:0.00%    MPKI:0.00
PC:84ca8     Total:428      MisBP:0   MisRate:0.00%    MPKI:0.00
PC:1f754     Total:2533      MisBP:0   MisRate:0.00%    MPKI:0.00
PC:15536     Total:119898      MisBP:0   MisRate:0.00%    MPKI:0.00
PC:84cac     Total:428      MisBP:0   MisRate:0.00%    MPKI:0.00
PC:1551c     Total:123252      MisBP:0   MisRate:0.00%    MPKI:0.00
PC:2e666     Total:212      MisBP:0   MisRate:0.00%    MPKI:0.00
PC:1551a     Total:123323      MisBP:0   MisRate:0.00%    MPKI:0.00
PC:15514     Total:126218      MisBP:0   MisRate:0.00%    MPKI:0.00
PC:1f732     Total:3291      MisBP:0   MisRate:0.00%    MPKI:0.00
PC:15510     Total:126224      MisBP:0   MisRate:0.00%    MPKI:0.00
PC:84c82     Total:431      MisBP:0   MisRate:0.00%    MPKI:0.00
PC:1550c     Total:126265      MisBP:0   MisRate:0.00%    MPKI:0.00
PC:477a0     Total:9550      MisBP:0   MisRate:0.00%    MPKI:0.00
PC:15504     Total:126294      MisBP:0   MisRate:0.00%    MPKI:0.00
PC:47798     Total:98987      MisBP:0   MisRate:0.00%    MPKI:0.00
PC:32f22     Total:1      MisBP:0   MisRate:0.00%    MPKI:0.00
PC:15502     Total:126296      MisBP:0   MisRate:0.00%    MPKI:0.00
PC:1f722     Total:3724      MisBP:0   MisRate:0.00%    MPKI:0.00
PC:15500     Total:126317      MisBP:0   MisRate:0.00%    MPKI:0.00
PC:1573e     Total:89916      MisBP:0   MisRate:0.00%    MPKI:0.00
PC:2e89c     Total:165      MisBP:0   MisRate:0.00%    MPKI:0.00
PC:1a026     Total:17      MisBP:0   MisRate:0.00%    MPKI:0.00
PC:1f970     Total:16      MisBP:0   MisRate:0.00%    MPKI:0.00
PC:48a5c     Total:2      MisBP:0   MisRate:0.00%    MPKI:0.00
PC:1574e     Total:89900      MisBP:0   MisRate:0.00%    MPKI:0.00
PC:2e898     Total:165      MisBP:0   MisRate:0.00%    MPKI:0.00
PC:1a022     Total:17      MisBP:0   MisRate:0.00%    MPKI:0.00
PC:1f968     Total:16      MisBP:0   MisRate:0.00%    MPKI:0.00
PC:9ac2c     Total:51      MisBP:0   MisRate:0.00%    MPKI:0.00
PC:15746     Total:89910      MisBP:0   MisRate:0.00%    MPKI:0.00
PC:2e890     Total:224      MisBP:0   MisRate:0.00%    MPKI:0.00
PC:1a01a     Total:17      MisBP:0   MisRate:0.00%    MPKI:0.00
PC:1f960     Total:6619      MisBP:0   MisRate:0.00%    MPKI:0.00
PC:9ac24     Total:52      MisBP:0   MisRate:0.00%    MPKI:0.00
PC:48a4c     Total:2      MisBP:0   MisRate:0.00%    MPKI:0.00
PC:32812     Total:760      MisBP:0   MisRate:0.00%    MPKI:0.00
PC:3e82a     Total:16040      MisBP:0   MisRate:0.00%    MPKI:0.00
PC:2ebc4     Total:1021      MisBP:0   MisRate:0.00%    MPKI:0.00
PC:1a780     Total:15020      MisBP:0   MisRate:0.00%    MPKI:0.00
PC:2e888     Total:953      MisBP:0   MisRate:0.00%    MPKI:0.00
PC:1a012     Total:18      MisBP:0   MisRate:0.00%    MPKI:0.00
PC:1f764     Total:2514      MisBP:0   MisRate:0.00%    MPKI:0.00
PC:84cb8     Total:211      MisBP:0   MisRate:0.00%    MPKI:0.00
PC:32ae0     Total:4      MisBP:0   MisRate:0.00%    MPKI:0.00
PC:15542     Total:115514      MisBP:0   MisRate:0.00%    MPKI:0.00
PC:5185a     Total:13170      MisBP:0   MisRate:0.00%    MPKI:0.00
PC:3cfe4     Total:10175      MisBP:0   MisRate:0.00%    MPKI:0.00
PC:33ba0     Total:183      MisBP:0   MisRate:0.00%    MPKI:0.00
PC:1553a     Total:119873      MisBP:0   MisRate:0.00%    MPKI:0.00
PC:3e626     Total:4      MisBP:0   MisRate:0.00%    MPKI:0.00
PC:1f758     Total:2533      MisBP:0   MisRate:0.00%    MPKI:0.00
PC:33112     Total:3      MisBP:0   MisRate:0.00%    MPKI:0.00
PC:72b40     Total:2      MisBP:0   MisRate:0.00%    MPKI:0.00
PC:49a54     Total:301      MisBP:0   MisRate:0.00%    MPKI:0.00
PC:16faa     Total:6607      MisBP:0   MisRate:0.00%    MPKI:0.00
PC:3f6dc     Total:15975      MisBP:0   MisRate:0.00%    MPKI:0.00
PC:3f6e0     Total:15974      MisBP:0   MisRate:0.00%    MPKI:0.00
PC:165f4     Total:8526      MisBP:0   MisRate:0.00%    MPKI:0.00
PC:15fa6     Total:6717      MisBP:0   MisRate:0.00%    MPKI:0.00
PC:47988     Total:8      MisBP:0   MisRate:0.00%    MPKI:0.00
PC:1f9e0     Total:606      MisBP:0   MisRate:0.00%    MPKI:0.00
PC:15680     Total:55675      MisBP:0   MisRate:0.00%    MPKI:0.00
PC:3e76c     Total:3074      MisBP:0   MisRate:0.00%    MPKI:0.00
PC:1a832     Total:2524      MisBP:0   MisRate:0.00%    MPKI:0.00
PC:2ec76     Total:152      MisBP:0   MisRate:0.00%    MPKI:0.00
PC:7c0d4     Total:20      MisBP:0   MisRate:0.00%    MPKI:0.00
PC:15686     Total:55675      MisBP:0   MisRate:0.00%    MPKI:0.00
PC:3e772     Total:3045      MisBP:0   MisRate:0.00%    MPKI:0.00
PC:1a836     Total:2524      MisBP:0   MisRate:0.00%    MPKI:0.00
PC:48acc     Total:776      MisBP:0   MisRate:0.00%    MPKI:0.00
PC:49a50     Total:301      MisBP:0   MisRate:0.00%    MPKI:0.00
PC:72b3c     Total:3      MisBP:0   MisRate:0.00%    MPKI:0.00
[...]
PC:2ca44     Total:119642      MisBP:4743   MisRate:3.96%    MPKI:0.02
PC:1a78a     Total:15019      MisBP:4748   MisRate:31.61%    MPKI:0.02
PC:1acc2     Total:45783      MisBP:4768   MisRate:10.41%    MPKI:0.02
PC:17eb8     Total:21910      MisBP:4770   MisRate:21.77%    MPKI:0.02
PC:1c796     Total:72820      MisBP:4775   MisRate:6.56%    MPKI:0.02
PC:199de     Total:58190      MisBP:4781   MisRate:8.22%    MPKI:0.02
PC:319cc     Total:37219      MisBP:4810   MisRate:12.92%    MPKI:0.02
PC:18fce     Total:46583      MisBP:4814   MisRate:10.33%    MPKI:0.02
PC:192f6     Total:43967      MisBP:4832   MisRate:10.99%    MPKI:0.02
PC:2ccb2     Total:28556      MisBP:4872   MisRate:17.06%    MPKI:0.02
PC:1ac4c     Total:89301      MisBP:4913   MisRate:5.50%    MPKI:0.02
PC:15f62     Total:23911      MisBP:4915   MisRate:20.56%    MPKI:0.02
PC:1596a     Total:98776      MisBP:4932   MisRate:4.99%    MPKI:0.02
PC:164b4     Total:17507      MisBP:4934   MisRate:28.18%    MPKI:0.02
PC:2d2c8     Total:14963      MisBP:4938   MisRate:33.00%    MPKI:0.02
PC:1c790     Total:62728      MisBP:4942   MisRate:7.88%    MPKI:0.02
PC:3c5cc     Total:31520      MisBP:4955   MisRate:15.72%    MPKI:0.02
PC:302a4     Total:31983      MisBP:5001   MisRate:15.64%    MPKI:0.02
PC:15d22     Total:29923      MisBP:5012   MisRate:16.75%    MPKI:0.02
PC:3ec3c     Total:30699      MisBP:5016   MisRate:16.34%    MPKI:0.02
PC:3036c     Total:33015      MisBP:5039   MisRate:15.26%    MPKI:0.02
PC:15e30     Total:17839      MisBP:5083   MisRate:28.49%    MPKI:0.02
PC:2ccd0     Total:89487      MisBP:5118   MisRate:5.72%    MPKI:0.02
PC:1615e     Total:22752      MisBP:5145   MisRate:22.61%    MPKI:0.02
PC:18f70     Total:39276      MisBP:5168   MisRate:13.16%    MPKI:0.02
PC:3cfa6     Total:90154      MisBP:5168   MisRate:5.73%    MPKI:0.02
PC:3c64a     Total:26438      MisBP:5170   MisRate:19.56%    MPKI:0.02
PC:3c692     Total:41464      MisBP:5230   MisRate:12.61%    MPKI:0.02
PC:1c04a     Total:66185      MisBP:5241   MisRate:7.92%    MPKI:0.02
PC:3c74a     Total:35294      MisBP:5285   MisRate:14.97%    MPKI:0.02
PC:15942     Total:53909      MisBP:5297   MisRate:9.83%    MPKI:0.02
PC:3ec4e     Total:12692      MisBP:5340   MisRate:42.07%    MPKI:0.02
PC:190a6     Total:24948      MisBP:5383   MisRate:21.58%    MPKI:0.02
PC:2cdc2     Total:117518      MisBP:5385   MisRate:4.58%    MPKI:0.02
PC:1614c     Total:21491      MisBP:5450   MisRate:25.36%    MPKI:0.02
PC:3c7e0     Total:58138      MisBP:5475   MisRate:9.42%    MPKI:0.02
PC:187b4     Total:225728      MisBP:5505   MisRate:2.44%    MPKI:0.02
PC:2d624     Total:65157      MisBP:5522   MisRate:8.47%    MPKI:0.02
PC:3c7b8     Total:45851      MisBP:5528   MisRate:12.06%    MPKI:0.02
PC:3f49c     Total:31241      MisBP:5544   MisRate:17.75%    MPKI:0.02
PC:2ca86     Total:128658      MisBP:5549   MisRate:4.31%    MPKI:0.02
PC:18a14     Total:30964      MisBP:5550   MisRate:17.92%    MPKI:0.02
PC:190ce     Total:37026      MisBP:5595   MisRate:15.11%    MPKI:0.02
PC:1927e     Total:48482      MisBP:5603   MisRate:11.56%    MPKI:0.02
PC:1c15c     Total:44475      MisBP:5625   MisRate:12.65%    MPKI:0.02
PC:2ff28     Total:33743      MisBP:5629   MisRate:16.68%    MPKI:0.02
PC:1882e     Total:99087      MisBP:5629   MisRate:5.68%    MPKI:0.02
PC:192b4     Total:60181      MisBP:5677   MisRate:9.43%    MPKI:0.02
PC:158ca     Total:45670      MisBP:5696   MisRate:12.47%    MPKI:0.02
PC:47bcc     Total:18965      MisBP:5699   MisRate:30.05%    MPKI:0.02
PC:1c55c     Total:8982      MisBP:5732   MisRate:63.82%    MPKI:0.02
PC:192c0     Total:54288      MisBP:5748   MisRate:10.59%    MPKI:0.02
PC:16138     Total:31366      MisBP:5779   MisRate:18.42%    MPKI:0.02
PC:3f4a2     Total:26711      MisBP:5805   MisRate:21.73%    MPKI:0.02
PC:159ce     Total:89187      MisBP:5910   MisRate:6.63%    MPKI:0.02
PC:2886a     Total:134312      MisBP:5987   MisRate:4.46%    MPKI:0.02
PC:2d64a     Total:40935      MisBP:6021   MisRate:14.71%    MPKI:0.02
PC:19018     Total:45961      MisBP:6067   MisRate:13.20%    MPKI:0.02
PC:3f4cc     Total:27782      MisBP:6067   MisRate:21.84%    MPKI:0.02
PC:2fd1e     Total:114548      MisBP:6087   MisRate:5.31%    MPKI:0.02
PC:1ac44     Total:89547      MisBP:6092   MisRate:6.80%    MPKI:0.02
PC:159e8     Total:74470      MisBP:6136   MisRate:8.24%    MPKI:0.02
PC:18df0     Total:29849      MisBP:6172   MisRate:20.68%    MPKI:0.02
PC:2d3f2     Total:110484      MisBP:6213   MisRate:5.62%    MPKI:0.02
PC:2d2be     Total:32358      MisBP:6216   MisRate:19.21%    MPKI:0.02
PC:15c9c     Total:40445      MisBP:6260   MisRate:15.48%    MPKI:0.02
PC:16198     Total:24256      MisBP:6289   MisRate:25.93%    MPKI:0.02
PC:3c7bc     Total:42572      MisBP:6290   MisRate:14.77%    MPKI:0.02
PC:15e66     Total:30063      MisBP:6413   MisRate:21.33%    MPKI:0.02
PC:41cc4     Total:17165      MisBP:6456   MisRate:37.61%    MPKI:0.02
PC:3cb1a     Total:27775      MisBP:6553   MisRate:23.59%    MPKI:0.02
PC:15b50     Total:32197      MisBP:6589   MisRate:20.46%    MPKI:0.02
PC:3c264     Total:69592      MisBP:6619   MisRate:9.51%    MPKI:0.02
PC:3c298     Total:38719      MisBP:6670   MisRate:17.23%    MPKI:0.02
PC:410ee     Total:20636      MisBP:6673   MisRate:32.34%    MPKI:0.02
PC:24ccc     Total:91090      MisBP:6676   MisRate:7.33%    MPKI:0.02
PC:1608e     Total:19884      MisBP:6714   MisRate:33.77%    MPKI:0.02
PC:156fa     Total:79302      MisBP:6852   MisRate:8.64%    MPKI:0.02
PC:19614     Total:176693      MisBP:6896   MisRate:3.90%    MPKI:0.02
PC:30456     Total:42508      MisBP:6978   MisRate:16.42%    MPKI:0.02
PC:19a6c     Total:47733      MisBP:6994   MisRate:14.65%    MPKI:0.02
PC:15972     Total:92531      MisBP:7096   MisRate:7.67%    MPKI:0.02
PC:3bfda     Total:42021      MisBP:7198   MisRate:17.13%    MPKI:0.02
PC:3f4d2     Total:22055      MisBP:7232   MisRate:32.79%    MPKI:0.02
PC:3e748     Total:28211      MisBP:7232   MisRate:25.64%    MPKI:0.02
PC:2fd66     Total:93753      MisBP:7239   MisRate:7.72%    MPKI:0.02
PC:31ba6     Total:156345      MisBP:7256   MisRate:4.64%    MPKI:0.02
PC:2fd4c     Total:169894      MisBP:7326   MisRate:4.31%    MPKI:0.02
PC:1c82c     Total:99780      MisBP:7348   MisRate:7.36%    MPKI:0.02
PC:2d6cc     Total:78224      MisBP:7387   MisRate:9.44%    MPKI:0.02
PC:18dfa     Total:51554      MisBP:7399   MisRate:14.35%    MPKI:0.02
PC:47890     Total:68098      MisBP:7463   MisRate:10.96%    MPKI:0.02
PC:197f4     Total:37374      MisBP:7561   MisRate:20.23%    MPKI:0.02
PC:154b2     Total:168244      MisBP:7615   MisRate:4.53%    MPKI:0.02
PC:47b58     Total:67752      MisBP:7727   MisRate:11.40%    MPKI:0.02
PC:2cd8e     Total:103782      MisBP:7756   MisRate:7.47%    MPKI:0.03
PC:2e26c     Total:127144      MisBP:7825   MisRate:6.15%    MPKI:0.03
PC:2fd2c     Total:112801      MisBP:7935   MisRate:7.03%    MPKI:0.03
PC:1accc     Total:41131      MisBP:7958   MisRate:19.35%    MPKI:0.03
PC:2d294     Total:185325      MisBP:8032   MisRate:4.33%    MPKI:0.03
PC:1b830     Total:20014      MisBP:8045   MisRate:40.20%    MPKI:0.03
PC:18f84     Total:41433      MisBP:8073   MisRate:19.48%    MPKI:0.03
PC:1ad06     Total:58254      MisBP:8131   MisRate:13.96%    MPKI:0.03
PC:19a52     Total:46520      MisBP:8172   MisRate:17.57%    MPKI:0.03
PC:19754     Total:72839      MisBP:8174   MisRate:11.22%    MPKI:0.03
PC:3c7b2     Total:62532      MisBP:8284   MisRate:13.25%    MPKI:0.03
PC:31b32     Total:155638      MisBP:8295   MisRate:5.33%    MPKI:0.03
PC:159d4     Total:72733      MisBP:8324   MisRate:11.44%    MPKI:0.03
PC:319c2     Total:73732      MisBP:8349   MisRate:11.32%    MPKI:0.03
PC:1adcc     Total:61993      MisBP:8538   MisRate:13.77%    MPKI:0.03
PC:3bfc6     Total:35206      MisBP:8585   MisRate:24.39%    MPKI:0.03
PC:31996     Total:168071      MisBP:8638   MisRate:5.14%    MPKI:0.03
PC:18e00     Total:144782      MisBP:8743   MisRate:6.04%    MPKI:0.03
PC:15e94     Total:29595      MisBP:8848   MisRate:29.90%    MPKI:0.03
PC:41130     Total:25619      MisBP:8968   MisRate:35.01%    MPKI:0.03
PC:3c7ee     Total:51467      MisBP:9100   MisRate:17.68%    MPKI:0.03
PC:2d644     Total:66286      MisBP:9105   MisRate:13.74%    MPKI:0.03
PC:2ce48     Total:142066      MisBP:9175   MisRate:6.46%    MPKI:0.03
PC:17de6     Total:42976      MisBP:9354   MisRate:21.77%    MPKI:0.03
PC:2d7f6     Total:140208      MisBP:9578   MisRate:6.83%    MPKI:0.03
PC:1ad02     Total:41891      MisBP:9584   MisRate:22.88%    MPKI:0.03
PC:2fd46     Total:122933      MisBP:9603   MisRate:7.81%    MPKI:0.03
PC:2cdee     Total:150689      MisBP:9631   MisRate:6.39%    MPKI:0.03
PC:3be8e     Total:54077      MisBP:9829   MisRate:18.18%    MPKI:0.03
PC:18bec     Total:474936      MisBP:9894   MisRate:2.08%    MPKI:0.03
PC:2ca4a     Total:67386      MisBP:10065   MisRate:14.94%    MPKI:0.03
PC:1acf6     Total:43693      MisBP:10107   MisRate:23.13%    MPKI:0.03
PC:15c92     Total:55931      MisBP:10188   MisRate:18.22%    MPKI:0.03
PC:478b8     Total:67496      MisBP:10188   MisRate:15.09%    MPKI:0.03
PC:1aca4     Total:65352      MisBP:10198   MisRate:15.60%    MPKI:0.03
PC:176c2     Total:75175      MisBP:10244   MisRate:13.63%    MPKI:0.03
PC:17e74     Total:34684      MisBP:10354   MisRate:29.85%    MPKI:0.03
PC:15950     Total:59229      MisBP:10560   MisRate:17.83%    MPKI:0.03
PC:1acb8     Total:47113      MisBP:10673   MisRate:22.65%    MPKI:0.03
PC:314ce     Total:209707      MisBP:10735   MisRate:5.12%    MPKI:0.03
PC:28796     Total:157207      MisBP:10837   MisRate:6.89%    MPKI:0.03
PC:2d6d0     Total:93365      MisBP:10930   MisRate:11.71%    MPKI:0.04
PC:513b0     Total:86259      MisBP:10954   MisRate:12.70%    MPKI:0.04
PC:2d878     Total:115773      MisBP:10971   MisRate:9.48%    MPKI:0.04
PC:2d7fe     Total:111605      MisBP:10991   MisRate:9.85%    MPKI:0.04
PC:159ee     Total:68816      MisBP:10998   MisRate:15.98%    MPKI:0.04
PC:1b7f4     Total:42817      MisBP:11093   MisRate:25.91%    MPKI:0.04
PC:3bf76     Total:462097      MisBP:11121   MisRate:2.41%    MPKI:0.04
PC:1973c     Total:67746      MisBP:11179   MisRate:16.50%    MPKI:0.04
PC:1c77e     Total:53466      MisBP:11283   MisRate:21.10%    MPKI:0.04
PC:2f3f4     Total:126286      MisBP:11406   MisRate:9.03%    MPKI:0.04
PC:2ce78     Total:44042      MisBP:11521   MisRate:26.16%    MPKI:0.04
PC:47b94     Total:72314      MisBP:11551   MisRate:15.97%    MPKI:0.04
PC:286ac     Total:179674      MisBP:11627   MisRate:6.47%    MPKI:0.04
PC:2cb22     Total:137423      MisBP:11627   MisRate:8.46%    MPKI:0.04
PC:2d47c     Total:55320      MisBP:11639   MisRate:21.04%    MPKI:0.04
PC:199dc     Total:97770      MisBP:11668   MisRate:11.93%    MPKI:0.04
PC:1acaa     Total:56976      MisBP:11723   MisRate:20.58%    MPKI:0.04
PC:513c2     Total:77081      MisBP:11848   MisRate:15.37%    MPKI:0.04
PC:2cda0     Total:120436      MisBP:11855   MisRate:9.84%    MPKI:0.04
PC:1acbc     Total:61396      MisBP:11990   MisRate:19.53%    MPKI:0.04
PC:14e64     Total:72446      MisBP:12553   MisRate:17.33%    MPKI:0.04
PC:15a08     Total:71400      MisBP:12779   MisRate:17.90%    MPKI:0.04
PC:28788     Total:168906      MisBP:12789   MisRate:7.57%    MPKI:0.04
PC:1c088     Total:40716      MisBP:12795   MisRate:31.42%    MPKI:0.04
PC:17fcc     Total:94084      MisBP:12972   MisRate:13.79%    MPKI:0.04
PC:2cc64     Total:230154      MisBP:13071   MisRate:5.68%    MPKI:0.04
PC:18d6a     Total:51506      MisBP:13138   MisRate:25.51%    MPKI:0.04
PC:2ca8c     Total:123421      MisBP:13216   MisRate:10.71%    MPKI:0.04
PC:15a0e     Total:82194      MisBP:13233   MisRate:16.10%    MPKI:0.04
PC:14e10     Total:57500      MisBP:13325   MisRate:23.17%    MPKI:0.04
PC:2d6bc     Total:97052      MisBP:13325   MisRate:13.73%    MPKI:0.04
PC:159fe     Total:62388      MisBP:13470   MisRate:21.59%    MPKI:0.04
PC:1c1d2     Total:56766      MisBP:13593   MisRate:23.95%    MPKI:0.04
PC:1ace0     Total:88919      MisBP:13605   MisRate:15.30%    MPKI:0.04
PC:319c8     Total:73467      MisBP:13938   MisRate:18.97%    MPKI:0.04
PC:18dde     Total:41430      MisBP:13974   MisRate:33.73%    MPKI:0.05
PC:18d76     Total:68118      MisBP:14078   MisRate:20.67%    MPKI:0.05
PC:1acd6     Total:86941      MisBP:14080   MisRate:16.19%    MPKI:0.05
PC:47b60     Total:74866      MisBP:14154   MisRate:18.91%    MPKI:0.05
PC:2caf6     Total:105250      MisBP:14289   MisRate:13.58%    MPKI:0.05
PC:159f8     Total:64957      MisBP:14543   MisRate:22.39%    MPKI:0.05
PC:47b0c     Total:70417      MisBP:14551   MisRate:20.66%    MPKI:0.05
PC:2cb26     Total:142931      MisBP:14781   MisRate:10.34%    MPKI:0.05
PC:18f6a     Total:124634      MisBP:14846   MisRate:11.91%    MPKI:0.05
PC:1c7d4     Total:49777      MisBP:14870   MisRate:29.87%    MPKI:0.05
PC:3199e     Total:194394      MisBP:15005   MisRate:7.72%    MPKI:0.05
PC:1576e     Total:85386      MisBP:15048   MisRate:17.62%    MPKI:0.05
PC:2cd68     Total:125896      MisBP:15112   MisRate:12.00%    MPKI:0.05
PC:192ac     Total:97759      MisBP:15223   MisRate:15.57%    MPKI:0.05
PC:51358     Total:1769238      MisBP:15509   MisRate:0.88%    MPKI:0.05
PC:154ac     Total:160697      MisBP:15727   MisRate:9.79%    MPKI:0.05
PC:2d576     Total:76928      MisBP:15807   MisRate:20.55%    MPKI:0.05
PC:14ea4     Total:79169      MisBP:15834   MisRate:20.00%    MPKI:0.05
PC:14f26     Total:88653      MisBP:15836   MisRate:17.86%    MPKI:0.05
PC:18d72     Total:58911      MisBP:15873   MisRate:26.94%    MPKI:0.05
PC:288b8     Total:207021      MisBP:15985   MisRate:7.72%    MPKI:0.05
PC:306ea     Total:1843505      MisBP:16054   MisRate:0.87%    MPKI:0.05
PC:3cfac     Total:82061      MisBP:16145   MisRate:19.67%    MPKI:0.05
PC:2cd76     Total:103519      MisBP:16161   MisRate:15.61%    MPKI:0.05
PC:1925a     Total:83908      MisBP:16243   MisRate:19.36%    MPKI:0.05
PC:15b40     Total:68337      MisBP:16327   MisRate:23.89%    MPKI:0.05
PC:1c01e     Total:92972      MisBP:16329   MisRate:17.56%    MPKI:0.05
PC:1bfe2     Total:152671      MisBP:16402   MisRate:10.74%    MPKI:0.05
PC:14ee6     Total:83061      MisBP:16471   MisRate:19.83%    MPKI:0.05
PC:2d2ae     Total:101163      MisBP:16966   MisRate:16.77%    MPKI:0.05
PC:3ca14     Total:136731      MisBP:17595   MisRate:12.87%    MPKI:0.06
PC:2d29e     Total:176185      MisBP:17596   MisRate:9.99%    MPKI:0.06
PC:2cc6c     Total:109174      MisBP:18077   MisRate:16.56%    MPKI:0.06
PC:9e50c     Total:563564      MisBP:18111   MisRate:3.21%    MPKI:0.06
PC:2cca2     Total:115562      MisBP:18125   MisRate:15.68%    MPKI:0.06
PC:156b6     Total:247460      MisBP:18204   MisRate:7.36%    MPKI:0.06
PC:15a1e     Total:54727      MisBP:18306   MisRate:33.45%    MPKI:0.06
PC:18d56     Total:76913      MisBP:18324   MisRate:23.82%    MPKI:0.06
PC:1aca0     Total:84144      MisBP:18483   MisRate:21.97%    MPKI:0.06
PC:2cdc8     Total:141794      MisBP:18945   MisRate:13.36%    MPKI:0.06
PC:1c12c     Total:97968      MisBP:19044   MisRate:19.44%    MPKI:0.06
PC:199f6     Total:126410      MisBP:19112   MisRate:15.12%    MPKI:0.06
PC:3ca34     Total:131924      MisBP:19176   MisRate:14.54%    MPKI:0.06
PC:18cde     Total:129254      MisBP:19289   MisRate:14.92%    MPKI:0.06
PC:192e0     Total:102375      MisBP:19344   MisRate:18.90%    MPKI:0.06
PC:319bc     Total:189621      MisBP:19511   MisRate:10.29%    MPKI:0.06
PC:3c220     Total:265265      MisBP:19697   MisRate:7.43%    MPKI:0.06
PC:17dac     Total:66304      MisBP:19755   MisRate:29.79%    MPKI:0.06
PC:2cc86     Total:408785      MisBP:19821   MisRate:4.85%    MPKI:0.06
PC:15964     Total:89870      MisBP:19986   MisRate:22.24%    MPKI:0.06
PC:14f62     Total:92446      MisBP:20383   MisRate:22.05%    MPKI:0.07
PC:1595a     Total:70455      MisBP:20634   MisRate:29.29%    MPKI:0.07
PC:19314     Total:114888      MisBP:21936   MisRate:19.09%    MPKI:0.07
PC:14fa8     Total:87640      MisBP:22359   MisRate:25.51%    MPKI:0.07
PC:2cd4a     Total:155031      MisBP:22473   MisRate:14.50%    MPKI:0.07
PC:3bf88     Total:68488      MisBP:22994   MisRate:33.57%    MPKI:0.07
PC:15a16     Total:70528      MisBP:23217   MisRate:32.92%    MPKI:0.07
PC:2893e     Total:545449      MisBP:23247   MisRate:4.26%    MPKI:0.07
PC:3ca0a     Total:160812      MisBP:23358   MisRate:14.53%    MPKI:0.08
PC:14fb8     Total:514307      MisBP:23767   MisRate:4.62%    MPKI:0.08
PC:18d3e     Total:103183      MisBP:23883   MisRate:23.15%    MPKI:0.08
PC:3c6e4     Total:93926      MisBP:24277   MisRate:25.85%    MPKI:0.08
PC:2d7ee     Total:284324      MisBP:24631   MisRate:8.66%    MPKI:0.08
PC:18d4c     Total:94752      MisBP:25590   MisRate:27.01%    MPKI:0.08
PC:2e870     Total:263584      MisBP:25757   MisRate:9.77%    MPKI:0.08
PC:1bfe8     Total:134468      MisBP:25925   MisRate:19.28%    MPKI:0.08
PC:155e6     Total:115501      MisBP:25926   MisRate:22.45%    MPKI:0.08
PC:2fd58     Total:164873      MisBP:25971   MisRate:15.75%    MPKI:0.08
PC:154a2     Total:124768      MisBP:26134   MisRate:20.95%    MPKI:0.08
PC:1bf88     Total:74133      MisBP:26942   MisRate:36.34%    MPKI:0.09
PC:3c224     Total:276762      MisBP:27053   MisRate:9.77%    MPKI:0.09
PC:157ba     Total:86219      MisBP:27281   MisRate:31.64%    MPKI:0.09
PC:18d34     Total:119780      MisBP:27433   MisRate:22.90%    MPKI:0.09
PC:84c10     Total:78280      MisBP:27630   MisRate:35.30%    MPKI:0.09
PC:3c73a     Total:164184      MisBP:28590   MisRate:17.41%    MPKI:0.09
PC:18bb2     Total:207590      MisBP:28828   MisRate:13.89%    MPKI:0.09
PC:2ca90     Total:143144      MisBP:28848   MisRate:20.15%    MPKI:0.09
PC:28718     Total:193076      MisBP:30137   MisRate:15.61%    MPKI:0.10
PC:3ca32     Total:214285      MisBP:30657   MisRate:14.31%    MPKI:0.10
PC:512ba     Total:248558      MisBP:32377   MisRate:13.03%    MPKI:0.10
PC:2d2a2     Total:199715      MisBP:33112   MisRate:16.58%    MPKI:0.11
PC:24cc8     Total:108833      MisBP:35014   MisRate:32.17%    MPKI:0.11
PC:1bfa8     Total:121669      MisBP:35840   MisRate:29.46%    MPKI:0.12
PC:28644     Total:214469      MisBP:35845   MisRate:16.71%    MPKI:0.12
PC:14fb2     Total:473669      MisBP:35997   MisRate:7.60%    MPKI:0.12
PC:51368     Total:1461196      MisBP:37310   MisRate:2.55%    MPKI:0.12
PC:1bfca     Total:144676      MisBP:39599   MisRate:27.37%    MPKI:0.13
PC:2cc9c     Total:466522      MisBP:43524   MisRate:9.33%    MPKI:0.14
PC:287d4     Total:171400      MisBP:43780   MisRate:25.54%    MPKI:0.14
PC:156e4     Total:332141      MisBP:44013   MisRate:13.25%    MPKI:0.14
PC:2cc8c     Total:389267      MisBP:45646   MisRate:11.73%    MPKI:0.15
PC:188ca     Total:202371      MisBP:46029   MisRate:22.74%    MPKI:0.15
PC:18bda     Total:404827      MisBP:46063   MisRate:11.38%    MPKI:0.15
PC:306c2     Total:1655686      MisBP:46908   MisRate:2.83%    MPKI:0.15
PC:30696     Total:1788691      MisBP:53674   MisRate:3.00%    MPKI:0.17
PC:156a4     Total:306432      MisBP:54626   MisRate:17.83%    MPKI:0.18
PC:17694     Total:1433542      MisBP:55756   MisRate:3.89%    MPKI:0.18
PC:18bde     Total:477098      MisBP:62330   MisRate:13.06%    MPKI:0.20
PC:28602     Total:2339376      MisBP:62410   MisRate:2.67%    MPKI:0.20
PC:512b6     Total:718988      MisBP:66263   MisRate:9.22%    MPKI:0.21
PC:3bf7c     Total:438134      MisBP:66397   MisRate:15.15%    MPKI:0.21
PC:512ac     Total:1140578      MisBP:88742   MisRate:7.78%    MPKI:0.29
PC:51360     Total:1772426      MisBP:90440   MisRate:5.10%    MPKI:0.29
PC:306c6     Total:1651402      MisBP:106923   MisRate:6.47%    MPKI:0.34
PC:1a934     Total:383253      MisBP:117750   MisRate:30.72%    MPKI:0.38
PC:2866a     Total:2313164      MisBP:126511   MisRate:5.47%    MPKI:0.41
Totfetch:598394964  TotInsts:310000000  TotMis : inf%   MPKI : 18.19
=============finish sim!!!!!!=============
Done running SimPoint!
