Global frequency set at 1000000000000 ticks per second
 Register [printBranch()] ExitCallback !!!!!!! 
gem5 Simulator System.  https://www.gem5.org
gem5 is copyrighted software; use the --copyright option for details.

gem5 version 22.0.0.2
gem5 compiled Sep  7 2022 00:42:18
gem5 started Sep  7 2022 02:30:26
gem5 executing on a100, pid 2739797
command line: /data/zxf/gem5/gem5-prof/build/ARM/gem5.fast --outdir=/data/zxf/checkpoint/spec2006/445.gobmk/prof/gobmk_ckp_4 /data/zxf/gem5/gem5-prof/configs/example/se.py --cpu-type O3CPU --cpu-clock 1GHz --num-cpu 1 --caches --l2cache --l1i_size 32kB --l1d_size 32kB --l2_size 1MB --l1i_assoc 8 --l1d_assoc 8 --l2_assoc 16 --cacheline_size 64 --mem-type DDR3_2133_8x8 --mem-size 16GB --l1d-hwp-type=BOPPrefetcher --restore-simpoint-checkpoint -r 4 --checkpoint-dir /data/zxf/checkpoint/spec2006/445.gobmk/ckpt -i 13x13.tst -c gobmk_base.gcc41-64bit -o '--quiet --mode gtp'

info: Standard input is not a terminal, disabling listeners.
Resuming from /data/zxf/checkpoint/spec2006/445.gobmk/ckpt/cpt.simpoint_03_inst_26390000000_weight_0.047566_interval_300000000_warmup_10000000
Resuming from SimPoint #3, start_inst:26390000000, weight:0.047566, interval:300000000, warmup:10000000
Switch at curTick count:10000
Switched CPUS @ tick 17913269221000
[(<m5.objects.ArmCPU.ArmAtomicSimpleCPU object at 0x7f7e0255ebb0>, <m5.objects.ArmCPU.ArmO3CPU object at 0x7f7e02577e20>)]
switching cpus



+++++++++++++++++++++++++zxf print simpoint+++++++++++++++++++++++++++
Warmed up! Dumping and resetting stats!


=============start sim!!!!!!=============
PC:396d0     Total:92      MisBP:0   MisRate:0.00%    MPKI:0.00
PC:18262     Total:365      MisBP:0   MisRate:0.00%    MPKI:0.00
PC:4134e     Total:7      MisBP:0   MisRate:0.00%    MPKI:0.00
PC:3a822     Total:230      MisBP:0   MisRate:0.00%    MPKI:0.00
PC:3a81a     Total:230      MisBP:0   MisRate:0.00%    MPKI:0.00
PC:3a816     Total:233      MisBP:0   MisRate:0.00%    MPKI:0.00
PC:3a80e     Total:232      MisBP:0   MisRate:0.00%    MPKI:0.00
PC:3a804     Total:378      MisBP:0   MisRate:0.00%    MPKI:0.00
PC:9ec28     Total:8      MisBP:0   MisRate:0.00%    MPKI:0.00
PC:396d4     Total:92      MisBP:0   MisRate:0.00%    MPKI:0.00
PC:9ec24     Total:4      MisBP:0   MisRate:0.00%    MPKI:0.00
PC:40aea     Total:188      MisBP:0   MisRate:0.00%    MPKI:0.00
PC:9ec20     Total:8      MisBP:0   MisRate:0.00%    MPKI:0.00
PC:396cc     Total:92      MisBP:0   MisRate:0.00%    MPKI:0.00
PC:9ec1c     Total:4      MisBP:0   MisRate:0.00%    MPKI:0.00
PC:381ce     Total:60313      MisBP:0   MisRate:0.00%    MPKI:0.00
PC:396c8     Total:92      MisBP:0   MisRate:0.00%    MPKI:0.00
PC:9ec14     Total:8      MisBP:0   MisRate:0.00%    MPKI:0.00
PC:381c6     Total:60313      MisBP:0   MisRate:0.00%    MPKI:0.00
PC:396c0     Total:92      MisBP:0   MisRate:0.00%    MPKI:0.00
PC:396be     Total:283      MisBP:0   MisRate:0.00%    MPKI:0.00
PC:4135e     Total:158      MisBP:0   MisRate:0.00%    MPKI:0.00
PC:1c37c     Total:972      MisBP:0   MisRate:0.00%    MPKI:0.00
PC:1c378     Total:971      MisBP:0   MisRate:0.00%    MPKI:0.00
PC:1c370     Total:971      MisBP:0   MisRate:0.00%    MPKI:0.00
PC:1c36a     Total:971      MisBP:0   MisRate:0.00%    MPKI:0.00
PC:1c364     Total:967      MisBP:0   MisRate:0.00%    MPKI:0.00
PC:40afc     Total:215      MisBP:0   MisRate:0.00%    MPKI:0.00
PC:18274     Total:365      MisBP:0   MisRate:0.00%    MPKI:0.00
PC:40afa     Total:215      MisBP:0   MisRate:0.00%    MPKI:0.00
PC:18272     Total:365      MisBP:0   MisRate:0.00%    MPKI:0.00
PC:9ec10     Total:4      MisBP:0   MisRate:0.00%    MPKI:0.00
PC:40af8     Total:215      MisBP:0   MisRate:0.00%    MPKI:0.00
PC:18270     Total:365      MisBP:0   MisRate:0.00%    MPKI:0.00
PC:40af4     Total:216      MisBP:0   MisRate:0.00%    MPKI:0.00
PC:1826c     Total:365      MisBP:0   MisRate:0.00%    MPKI:0.00
PC:40af2     Total:216      MisBP:0   MisRate:0.00%    MPKI:0.00
PC:1826a     Total:365      MisBP:0   MisRate:0.00%    MPKI:0.00
PC:40af0     Total:216      MisBP:0   MisRate:0.00%    MPKI:0.00
PC:18268     Total:365      MisBP:0   MisRate:0.00%    MPKI:0.00
PC:18266     Total:365      MisBP:0   MisRate:0.00%    MPKI:0.00
PC:37e2c     Total:3124      MisBP:0   MisRate:0.00%    MPKI:0.00
PC:9ebf0     Total:14      MisBP:0   MisRate:0.00%    MPKI:0.00
PC:381a2     Total:90436      MisBP:0   MisRate:0.00%    MPKI:0.00
PC:3969c     Total:486      MisBP:0   MisRate:0.00%    MPKI:0.00
PC:3969a     Total:486      MisBP:0   MisRate:0.00%    MPKI:0.00
PC:9ebec     Total:14      MisBP:0   MisRate:0.00%    MPKI:0.00
PC:39698     Total:486      MisBP:0   MisRate:0.00%    MPKI:0.00
PC:93166     Total:464      MisBP:0   MisRate:0.00%    MPKI:0.00
PC:17ea2     Total:110507      MisBP:0   MisRate:0.00%    MPKI:0.00
PC:37e34     Total:3124      MisBP:0   MisRate:0.00%    MPKI:0.00
PC:9315e     Total:510      MisBP:0   MisRate:0.00%    MPKI:0.00
PC:396a0     Total:310      MisBP:0   MisRate:0.00%    MPKI:0.00
PC:9315a     Total:510      MisBP:0   MisRate:0.00%    MPKI:0.00
PC:37e28     Total:3124      MisBP:0   MisRate:0.00%    MPKI:0.00
PC:93144     Total:2260      MisBP:0   MisRate:0.00%    MPKI:0.00
PC:17e80     Total:111128      MisBP:0   MisRate:0.00%    MPKI:0.00
PC:37e12     Total:3205      MisBP:0   MisRate:0.00%    MPKI:0.00
PC:37e06     Total:3205      MisBP:0   MisRate:0.00%    MPKI:0.00
PC:41e0a     Total:349      MisBP:0   MisRate:0.00%    MPKI:0.00
PC:37be8     Total:17242      MisBP:0   MisRate:0.00%    MPKI:0.00
PC:41e04     Total:349      MisBP:0   MisRate:0.00%    MPKI:0.00
PC:396b0     Total:306      MisBP:0   MisRate:0.00%    MPKI:0.00
PC:396bc     Total:283      MisBP:0   MisRate:0.00%    MPKI:0.00
PC:9ec0c     Total:8      MisBP:0   MisRate:0.00%    MPKI:0.00
PC:381be     Total:91227      MisBP:0   MisRate:0.00%    MPKI:0.00
PC:396b6     Total:306      MisBP:0   MisRate:0.00%    MPKI:0.00
PC:9ec08     Total:8      MisBP:0   MisRate:0.00%    MPKI:0.00
PC:381ba     Total:92555      MisBP:0   MisRate:0.00%    MPKI:0.00
PC:396b4     Total:306      MisBP:0   MisRate:0.00%    MPKI:0.00
PC:396b2     Total:306      MisBP:0   MisRate:0.00%    MPKI:0.00
PC:9ec04     Total:8      MisBP:0   MisRate:0.00%    MPKI:0.00
PC:1c380     Total:967      MisBP:0   MisRate:0.00%    MPKI:0.00
PC:9ec00     Total:8      MisBP:0   MisRate:0.00%    MPKI:0.00
PC:396ac     Total:306      MisBP:0   MisRate:0.00%    MPKI:0.00
PC:396aa     Total:307      MisBP:0   MisRate:0.00%    MPKI:0.00
PC:9ebfc     Total:18      MisBP:0   MisRate:0.00%    MPKI:0.00
PC:396a8     Total:307      MisBP:0   MisRate:0.00%    MPKI:0.00
PC:9ebf8     Total:18      MisBP:0   MisRate:0.00%    MPKI:0.00
PC:396a2     Total:310      MisBP:0   MisRate:0.00%    MPKI:0.00
PC:9ebf4     Total:14      MisBP:0   MisRate:0.00%    MPKI:0.00
PC:381a6     Total:68354      MisBP:0   MisRate:0.00%    MPKI:0.00
PC:15fec     Total:6355      MisBP:0   MisRate:0.00%    MPKI:0.00
PC:41dc8     Total:681      MisBP:0   MisRate:0.00%    MPKI:0.00
PC:18cdc     Total:188898      MisBP:0   MisRate:0.00%    MPKI:0.00
PC:1aef2     Total:831      MisBP:0   MisRate:0.00%    MPKI:0.00
PC:1aee6     Total:5162      MisBP:0   MisRate:0.00%    MPKI:0.00
PC:1aee0     Total:5323      MisBP:0   MisRate:0.00%    MPKI:0.00
PC:1aedc     Total:5323      MisBP:0   MisRate:0.00%    MPKI:0.00
PC:1aed6     Total:5323      MisBP:0   MisRate:0.00%    MPKI:0.00
PC:3947a     Total:11673      MisBP:0   MisRate:0.00%    MPKI:0.00
PC:3f0da     Total:23      MisBP:0   MisRate:0.00%    MPKI:0.00
PC:15fee     Total:6355      MisBP:0   MisRate:0.00%    MPKI:0.00
PC:16a12     Total:4355      MisBP:0   MisRate:0.00%    MPKI:0.00
PC:16850     Total:8052      MisBP:0   MisRate:0.00%    MPKI:0.00
PC:3f0d4     Total:113      MisBP:0   MisRate:0.00%    MPKI:0.00
PC:1684c     Total:8052      MisBP:0   MisRate:0.00%    MPKI:0.00
PC:3f938     Total:197      MisBP:0   MisRate:0.00%    MPKI:0.00
PC:1684a     Total:8052      MisBP:0   MisRate:0.00%    MPKI:0.00
PC:3f936     Total:197      MisBP:0   MisRate:0.00%    MPKI:0.00
PC:3f0ce     Total:130      MisBP:0   MisRate:0.00%    MPKI:0.00
PC:15fe2     Total:6783      MisBP:0   MisRate:0.00%    MPKI:0.00
PC:16846     Total:8052      MisBP:0   MisRate:0.00%    MPKI:0.00
PC:161bc     Total:94961      MisBP:0   MisRate:0.00%    MPKI:0.00
PC:161ca     Total:89894      MisBP:0   MisRate:0.00%    MPKI:0.00
PC:16a2e     Total:4792      MisBP:0   MisRate:0.00%    MPKI:0.00
PC:3f2b4     Total:10      MisBP:0   MisRate:0.00%    MPKI:0.00
PC:161c8     Total:89894      MisBP:0   MisRate:0.00%    MPKI:0.00
PC:3f2b0     Total:8      MisBP:0   MisRate:0.00%    MPKI:0.00
PC:161c4     Total:89898      MisBP:0   MisRate:0.00%    MPKI:0.00
PC:3f2ac     Total:8      MisBP:0   MisRate:0.00%    MPKI:0.00
PC:161c0     Total:89904      MisBP:0   MisRate:0.00%    MPKI:0.00
PC:3f2a8     Total:8      MisBP:0   MisRate:0.00%    MPKI:0.00
PC:3f296     Total:36      MisBP:0   MisRate:0.00%    MPKI:0.00
PC:3f2a2     Total:36      MisBP:0   MisRate:0.00%    MPKI:0.00
PC:161b6     Total:95051      MisBP:0   MisRate:0.00%    MPKI:0.00
PC:16a1a     Total:4897      MisBP:0   MisRate:0.00%    MPKI:0.00
PC:3f2a0     Total:36      MisBP:0   MisRate:0.00%    MPKI:0.00
PC:161b4     Total:95071      MisBP:0   MisRate:0.00%    MPKI:0.00
PC:3f29c     Total:36      MisBP:0   MisRate:0.00%    MPKI:0.00
PC:161b0     Total:95072      MisBP:0   MisRate:0.00%    MPKI:0.00
PC:3f29a     Total:36      MisBP:0   MisRate:0.00%    MPKI:0.00
PC:161ae     Total:95529      MisBP:0   MisRate:0.00%    MPKI:0.00
PC:1939a     Total:784      MisBP:0   MisRate:0.00%    MPKI:0.00
PC:1b936     Total:6637      MisBP:0   MisRate:0.00%    MPKI:0.00
PC:1b934     Total:2532      MisBP:0   MisRate:0.00%    MPKI:0.00
PC:1b932     Total:2532      MisBP:0   MisRate:0.00%    MPKI:0.00
PC:1b92c     Total:2802      MisBP:0   MisRate:0.00%    MPKI:0.00
PC:1b92a     Total:2802      MisBP:0   MisRate:0.00%    MPKI:0.00
PC:1b926     Total:2802      MisBP:0   MisRate:0.00%    MPKI:0.00
PC:1b924     Total:1198      MisBP:0   MisRate:0.00%    MPKI:0.00
PC:1b91e     Total:1330      MisBP:0   MisRate:0.00%    MPKI:0.00
PC:1b91a     Total:1330      MisBP:0   MisRate:0.00%    MPKI:0.00
PC:193b6     Total:694      MisBP:0   MisRate:0.00%    MPKI:0.00
PC:1b93a     Total:6636      MisBP:0   MisRate:0.00%    MPKI:0.00
PC:41c12     Total:8      MisBP:0   MisRate:0.00%    MPKI:0.00
PC:1938a     Total:4133      MisBP:0   MisRate:0.00%    MPKI:0.00
PC:1c3be     Total:1507      MisBP:0   MisRate:0.00%    MPKI:0.00
PC:1c3b2     Total:3956      MisBP:0   MisRate:0.00%    MPKI:0.00
PC:1c3ae     Total:3988      MisBP:0   MisRate:0.00%    MPKI:0.00
PC:1c3a4     Total:3986      MisBP:0   MisRate:0.00%    MPKI:0.00
PC:1c39c     Total:4070      MisBP:0   MisRate:0.00%    MPKI:0.00
PC:1c392     Total:4101      MisBP:0   MisRate:0.00%    MPKI:0.00
PC:1c384     Total:967      MisBP:0   MisRate:0.00%    MPKI:0.00
PC:3f286     Total:36      MisBP:0   MisRate:0.00%    MPKI:0.00
PC:161aa     Total:95533      MisBP:0   MisRate:0.00%    MPKI:0.00
PC:16a0c     Total:4620      MisBP:0   MisRate:0.00%    MPKI:0.00
PC:3f292     Total:36      MisBP:0   MisRate:0.00%    MPKI:0.00
PC:161a6     Total:96258      MisBP:0   MisRate:0.00%    MPKI:0.00
PC:3f28e     Total:36      MisBP:0   MisRate:0.00%    MPKI:0.00
PC:161a2     Total:96260      MisBP:0   MisRate:0.00%    MPKI:0.00
PC:3f28c     Total:36      MisBP:0   MisRate:0.00%    MPKI:0.00
PC:3f28a     Total:36      MisBP:0   MisRate:0.00%    MPKI:0.00
PC:1619e     Total:96269      MisBP:0   MisRate:0.00%    MPKI:0.00
PC:18d18     Total:8022      MisBP:0   MisRate:0.00%    MPKI:0.00
PC:169fe     Total:4467      MisBP:0   MisRate:0.00%    MPKI:0.00
PC:395a8     Total:1209      MisBP:0   MisRate:0.00%    MPKI:0.00
PC:395a4     Total:1316      MisBP:0   MisRate:0.00%    MPKI:0.00
PC:395a0     Total:1339      MisBP:0   MisRate:0.00%    MPKI:0.00
PC:3959c     Total:1339      MisBP:0   MisRate:0.00%    MPKI:0.00
PC:39588     Total:580      MisBP:0   MisRate:0.00%    MPKI:0.00
PC:24d12     Total:144851      MisBP:0   MisRate:0.00%    MPKI:0.00
PC:395e8     Total:1514      MisBP:0   MisRate:0.00%    MPKI:0.00
PC:1b93c     Total:6636      MisBP:0   MisRate:0.00%    MPKI:0.00
PC:1b69a     Total:14      MisBP:0   MisRate:0.00%    MPKI:0.00
PC:3b6cc     Total:383      MisBP:0   MisRate:0.00%    MPKI:0.00
PC:3b6c8     Total:375      MisBP:0   MisRate:0.00%    MPKI:0.00
PC:3b6c6     Total:375      MisBP:0   MisRate:0.00%    MPKI:0.00
PC:3b6c2     Total:375      MisBP:0   MisRate:0.00%    MPKI:0.00
PC:3b6c0     Total:375      MisBP:0   MisRate:0.00%    MPKI:0.00
PC:3b6be     Total:392      MisBP:0   MisRate:0.00%    MPKI:0.00
PC:3b6bc     Total:392      MisBP:0   MisRate:0.00%    MPKI:0.00
PC:3b6b8     Total:392      MisBP:0   MisRate:0.00%    MPKI:0.00
PC:3b6b4     Total:392      MisBP:0   MisRate:0.00%    MPKI:0.00
PC:3b6b2     Total:392      MisBP:0   MisRate:0.00%    MPKI:0.00
PC:3b6ce     Total:383      MisBP:0   MisRate:0.00%    MPKI:0.00
PC:1b698     Total:14      MisBP:0   MisRate:0.00%    MPKI:0.00
PC:1b696     Total:14      MisBP:0   MisRate:0.00%    MPKI:0.00
PC:1b694     Total:14      MisBP:0   MisRate:0.00%    MPKI:0.00
PC:1b690     Total:14      MisBP:0   MisRate:0.00%    MPKI:0.00
PC:1b68e     Total:14      MisBP:0   MisRate:0.00%    MPKI:0.00
PC:1b68c     Total:14      MisBP:0   MisRate:0.00%    MPKI:0.00
PC:1b688     Total:14      MisBP:0   MisRate:0.00%    MPKI:0.00
PC:1b684     Total:14      MisBP:0   MisRate:0.00%    MPKI:0.00
PC:1b680     Total:14      MisBP:0   MisRate:0.00%    MPKI:0.00
PC:3a930     Total:9380      MisBP:0   MisRate:0.00%    MPKI:0.00
PC:3a990     Total:929      MisBP:0   MisRate:0.00%    MPKI:0.00
PC:1c328     Total:3546      MisBP:0   MisRate:0.00%    MPKI:0.00
PC:3a98e     Total:929      MisBP:0   MisRate:0.00%    MPKI:0.00
PC:3a98c     Total:929      MisBP:0   MisRate:0.00%    MPKI:0.00
PC:3a972     Total:930      MisBP:0   MisRate:0.00%    MPKI:0.00
PC:3a962     Total:930      MisBP:0   MisRate:0.00%    MPKI:0.00
PC:3a958     Total:930      MisBP:0   MisRate:0.00%    MPKI:0.00
PC:3a950     Total:930      MisBP:0   MisRate:0.00%    MPKI:0.00
PC:3a934     Total:938      MisBP:0   MisRate:0.00%    MPKI:0.00
PC:1cefc     Total:390      MisBP:0   MisRate:0.00%    MPKI:0.00
PC:3b6ea     Total:350      MisBP:0   MisRate:0.00%    MPKI:0.00
PC:3b6e8     Total:350      MisBP:0   MisRate:0.00%    MPKI:0.00
PC:3b6e6     Total:350      MisBP:0   MisRate:0.00%    MPKI:0.00
PC:3b6e4     Total:350      MisBP:0   MisRate:0.00%    MPKI:0.00
PC:3b6e0     Total:352      MisBP:0   MisRate:0.00%    MPKI:0.00
PC:3b6de     Total:352      MisBP:0   MisRate:0.00%    MPKI:0.00
PC:3b6da     Total:352      MisBP:0   MisRate:0.00%    MPKI:0.00
PC:3b6d8     Total:352      MisBP:0   MisRate:0.00%    MPKI:0.00
PC:3b6d4     Total:352      MisBP:0   MisRate:0.00%    MPKI:0.00
PC:3b698     Total:22      MisBP:0   MisRate:0.00%    MPKI:0.00
PC:3b6ae     Total:408      MisBP:0   MisRate:0.00%    MPKI:0.00
PC:3b6aa     Total:408      MisBP:0   MisRate:0.00%    MPKI:0.00
PC:3b6a8     Total:411      MisBP:0   MisRate:0.00%    MPKI:0.00
PC:3b6a6     Total:411      MisBP:0   MisRate:0.00%    MPKI:0.00
PC:3b6a4     Total:411      MisBP:0   MisRate:0.00%    MPKI:0.00
PC:3b6a2     Total:411      MisBP:0   MisRate:0.00%    MPKI:0.00
PC:3b6a0     Total:411      MisBP:0   MisRate:0.00%    MPKI:0.00
PC:3b69e     Total:398      MisBP:0   MisRate:0.00%    MPKI:0.00
PC:3b69c     Total:398      MisBP:0   MisRate:0.00%    MPKI:0.00
PC:3b69a     Total:398      MisBP:0   MisRate:0.00%    MPKI:0.00
PC:3b6b0     Total:408      MisBP:0   MisRate:0.00%    MPKI:0.00
PC:3b696     Total:22      MisBP:0   MisRate:0.00%    MPKI:0.00
PC:3b694     Total:22      MisBP:0   MisRate:0.00%    MPKI:0.00
PC:3b692     Total:22      MisBP:0   MisRate:0.00%    MPKI:0.00
PC:3b690     Total:22      MisBP:0   MisRate:0.00%    MPKI:0.00
PC:3b68e     Total:22      MisBP:0   MisRate:0.00%    MPKI:0.00
PC:3b68c     Total:22      MisBP:0   MisRate:0.00%    MPKI:0.00
PC:3b68a     Total:22      MisBP:0   MisRate:0.00%    MPKI:0.00
PC:3b688     Total:22      MisBP:0   MisRate:0.00%    MPKI:0.00
PC:3b686     Total:22      MisBP:0   MisRate:0.00%    MPKI:0.00
PC:51310     Total:839      MisBP:0   MisRate:0.00%    MPKI:0.00
PC:51324     Total:813      MisBP:0   MisRate:0.00%    MPKI:0.00
PC:51322     Total:813      MisBP:0   MisRate:0.00%    MPKI:0.00
PC:51320     Total:813      MisBP:0   MisRate:0.00%    MPKI:0.00
PC:3ced8     Total:20      MisBP:0   MisRate:0.00%    MPKI:0.00
PC:5131c     Total:813      MisBP:0   MisRate:0.00%    MPKI:0.00
PC:3ced4     Total:20      MisBP:0   MisRate:0.00%    MPKI:0.00
PC:51318     Total:839      MisBP:0   MisRate:0.00%    MPKI:0.00
PC:51316     Total:839      MisBP:0   MisRate:0.00%    MPKI:0.00
PC:51314     Total:839      MisBP:0   MisRate:0.00%    MPKI:0.00
PC:3a992     Total:929      MisBP:0   MisRate:0.00%    MPKI:0.00
PC:5130c     Total:839      MisBP:0   MisRate:0.00%    MPKI:0.00
PC:3cec4     Total:20      MisBP:0   MisRate:0.00%    MPKI:0.00
PC:5173a     Total:2067      MisBP:0   MisRate:0.00%    MPKI:0.00
PC:51308     Total:839      MisBP:0   MisRate:0.00%    MPKI:0.00
PC:3cec0     Total:10      MisBP:0   MisRate:0.00%    MPKI:0.00
PC:51304     Total:839      MisBP:0   MisRate:0.00%    MPKI:0.00
PC:3cebc     Total:22      MisBP:0   MisRate:0.00%    MPKI:0.00
PC:51300     Total:839      MisBP:0   MisRate:0.00%    MPKI:0.00
PC:1cef8     Total:4021      MisBP:0   MisRate:0.00%    MPKI:0.00
PC:37bb2     Total:1      MisBP:0   MisRate:0.00%    MPKI:0.00
PC:37c08     Total:3059      MisBP:0   MisRate:0.00%    MPKI:0.00
PC:41e24     Total:6      MisBP:0   MisRate:0.00%    MPKI:0.00
PC:18d38     Total:156639      MisBP:0   MisRate:0.00%    MPKI:0.00
PC:41e1a     Total:6      MisBP:0   MisRate:0.00%    MPKI:0.00
PC:18d2e     Total:180696      MisBP:0   MisRate:0.00%    MPKI:0.00
PC:37bf8     Total:18725      MisBP:0   MisRate:0.00%    MPKI:0.00
PC:41e14     Total:6      MisBP:0   MisRate:0.00%    MPKI:0.00
PC:18d28     Total:180744      MisBP:0   MisRate:0.00%    MPKI:0.00
PC:37bf2     Total:38621      MisBP:0   MisRate:0.00%    MPKI:0.00
PC:37bb8     Total:1      MisBP:0   MisRate:0.00%    MPKI:0.00
PC:41e2a     Total:3      MisBP:0   MisRate:0.00%    MPKI:0.00
PC:37bae     Total:3402      MisBP:0   MisRate:0.00%    MPKI:0.00
PC:19544     Total:227      MisBP:0   MisRate:0.00%    MPKI:0.00
PC:37baa     Total:3402      MisBP:0   MisRate:0.00%    MPKI:0.00
PC:37ba8     Total:3402      MisBP:0   MisRate:0.00%    MPKI:0.00
PC:41dc4     Total:345      MisBP:0   MisRate:0.00%    MPKI:0.00
PC:37ba2     Total:3410      MisBP:0   MisRate:0.00%    MPKI:0.00
PC:37b98     Total:3411      MisBP:0   MisRate:0.00%    MPKI:0.00
PC:41db4     Total:336      MisBP:0   MisRate:0.00%    MPKI:0.00
PC:18cc8     Total:194239      MisBP:0   MisRate:0.00%    MPKI:0.00
PC:37c88     Total:9600      MisBP:0   MisRate:0.00%    MPKI:0.00
PC:37be2     Total:16751      MisBP:0   MisRate:0.00%    MPKI:0.00
PC:19602     Total:7456      MisBP:0   MisRate:0.00%    MPKI:0.00
PC:18dd0     Total:45681      MisBP:0   MisRate:0.00%    MPKI:0.00
PC:37c9a     Total:3834      MisBP:0   MisRate:0.00%    MPKI:0.00
PC:41eb2     Total:87      MisBP:0   MisRate:0.00%    MPKI:0.00
PC:18dc6     Total:45681      MisBP:0   MisRate:0.00%    MPKI:0.00
PC:37c90     Total:9600      MisBP:0   MisRate:0.00%    MPKI:0.00
PC:41eae     Total:87      MisBP:0   MisRate:0.00%    MPKI:0.00
PC:37c8c     Total:9600      MisBP:0   MisRate:0.00%    MPKI:0.00
PC:41db0     Total:336      MisBP:0   MisRate:0.00%    MPKI:0.00
PC:37c84     Total:9600      MisBP:0   MisRate:0.00%    MPKI:0.00
PC:41ea2     Total:180      MisBP:0   MisRate:0.00%    MPKI:0.00
PC:37c80     Total:9563      MisBP:0   MisRate:0.00%    MPKI:0.00
PC:41e9e     Total:112      MisBP:0   MisRate:0.00%    MPKI:0.00
PC:37c7c     Total:9652      MisBP:0   MisRate:0.00%    MPKI:0.00
PC:37c76     Total:9652      MisBP:0   MisRate:0.00%    MPKI:0.00
PC:41e3c     Total:382      MisBP:0   MisRate:0.00%    MPKI:0.00
PC:18d50     Total:103753      MisBP:0   MisRate:0.00%    MPKI:0.00
PC:37c1a     Total:3327      MisBP:0   MisRate:0.00%    MPKI:0.00
PC:3a99e     Total:929      MisBP:0   MisRate:0.00%    MPKI:0.00
PC:37b26     Total:2620      MisBP:0   MisRate:0.00%    MPKI:0.00
PC:1c348     Total:8811      MisBP:0   MisRate:0.00%    MPKI:0.00
PC:3a9ae     Total:2006      MisBP:0   MisRate:0.00%    MPKI:0.00
PC:3a9ac     Total:2006      MisBP:0   MisRate:0.00%    MPKI:0.00
PC:1c344     Total:8811      MisBP:0   MisRate:0.00%    MPKI:0.00
PC:3a9aa     Total:2006      MisBP:0   MisRate:0.00%    MPKI:0.00
PC:3a9a8     Total:2006      MisBP:0   MisRate:0.00%    MPKI:0.00
PC:3a9a4     Total:2006      MisBP:0   MisRate:0.00%    MPKI:0.00
PC:3a9a0     Total:929      MisBP:0   MisRate:0.00%    MPKI:0.00
PC:1c338     Total:9086      MisBP:0   MisRate:0.00%    MPKI:0.00
PC:37b2a     Total:2620      MisBP:0   MisRate:0.00%    MPKI:0.00
PC:1c336     Total:9101      MisBP:0   MisRate:0.00%    MPKI:0.00
PC:3a99c     Total:929      MisBP:0   MisRate:0.00%    MPKI:0.00
PC:3a99a     Total:929      MisBP:0   MisRate:0.00%    MPKI:0.00
PC:1c332     Total:9101      MisBP:0   MisRate:0.00%    MPKI:0.00
PC:3a998     Total:929      MisBP:0   MisRate:0.00%    MPKI:0.00
PC:3a996     Total:929      MisBP:0   MisRate:0.00%    MPKI:0.00
PC:1c32e     Total:18282      MisBP:0   MisRate:0.00%    MPKI:0.00
PC:3a994     Total:929      MisBP:0   MisRate:0.00%    MPKI:0.00
PC:1c32c     Total:3546      MisBP:0   MisRate:0.00%    MPKI:0.00
PC:41d8a     Total:390      MisBP:0   MisRate:0.00%    MPKI:0.00
PC:18cc4     Total:194248      MisBP:0   MisRate:0.00%    MPKI:0.00
PC:37b8e     Total:3411      MisBP:0   MisRate:0.00%    MPKI:0.00
PC:41da4     Total:1530      MisBP:0   MisRate:0.00%    MPKI:0.00
PC:37b82     Total:1419389      MisBP:0   MisRate:0.00%    MPKI:0.00
PC:41da0     Total:226      MisBP:0   MisRate:0.00%    MPKI:0.00
PC:37b7e     Total:1419414      MisBP:0   MisRate:0.00%    MPKI:0.00
PC:37b72     Total:1424278      MisBP:0   MisRate:0.00%    MPKI:0.00
PC:41d90     Total:390      MisBP:0   MisRate:0.00%    MPKI:0.00
PC:37b6e     Total:3883      MisBP:0   MisRate:0.00%    MPKI:0.00
PC:3f2b6     Total:10      MisBP:0   MisRate:0.00%    MPKI:0.00
PC:37b68     Total:3883      MisBP:0   MisRate:0.00%    MPKI:0.00
PC:41d84     Total:390      MisBP:0   MisRate:0.00%    MPKI:0.00
PC:37b62     Total:3883      MisBP:0   MisRate:0.00%    MPKI:0.00
PC:37b58     Total:3915      MisBP:0   MisRate:0.00%    MPKI:0.00
PC:37b52     Total:3915      MisBP:0   MisRate:0.00%    MPKI:0.00
PC:37b4e     Total:3915      MisBP:0   MisRate:0.00%    MPKI:0.00
PC:194da     Total:95      MisBP:0   MisRate:0.00%    MPKI:0.00
PC:37b40     Total:3915      MisBP:0   MisRate:0.00%    MPKI:0.00
PC:194c4     Total:4      MisBP:0   MisRate:0.00%    MPKI:0.00
PC:3bb98     Total:494      MisBP:0   MisRate:0.00%    MPKI:0.00
PC:407f6     Total:1050      MisBP:0   MisRate:0.00%    MPKI:0.00
PC:17708     Total:1720      MisBP:0   MisRate:0.00%    MPKI:0.00
PC:407f4     Total:1050      MisBP:0   MisRate:0.00%    MPKI:0.00
PC:3ff8e     Total:1401      MisBP:0   MisRate:0.00%    MPKI:0.00
PC:17706     Total:1720      MisBP:0   MisRate:0.00%    MPKI:0.00
PC:3ff8a     Total:812      MisBP:0   MisRate:0.00%    MPKI:0.00
PC:17702     Total:1720      MisBP:0   MisRate:0.00%    MPKI:0.00
PC:176fe     Total:1720      MisBP:0   MisRate:0.00%    MPKI:0.00
PC:407ea     Total:815      MisBP:0   MisRate:0.00%    MPKI:0.00
PC:3bb9c     Total:494      MisBP:0   MisRate:0.00%    MPKI:0.00
PC:1770a     Total:1720      MisBP:0   MisRate:0.00%    MPKI:0.00
PC:3bb96     Total:168      MisBP:0   MisRate:0.00%    MPKI:0.00
PC:3bb94     Total:168      MisBP:0   MisRate:0.00%    MPKI:0.00
PC:3bb92     Total:168      MisBP:0   MisRate:0.00%    MPKI:0.00
PC:3bb8e     Total:492      MisBP:0   MisRate:0.00%    MPKI:0.00
PC:3bb88     Total:705      MisBP:0   MisRate:0.00%    MPKI:0.00
PC:3bb84     Total:705      MisBP:0   MisRate:0.00%    MPKI:0.00
PC:3bb82     Total:705      MisBP:0   MisRate:0.00%    MPKI:0.00
PC:3bb7e     Total:611      MisBP:0   MisRate:0.00%    MPKI:0.00
PC:411d0     Total:286      MisBP:0   MisRate:0.00%    MPKI:0.00
PC:40802     Total:539      MisBP:0   MisRate:0.00%    MPKI:0.00
PC:4080e     Total:539      MisBP:0   MisRate:0.00%    MPKI:0.00
PC:1771e     Total:2      MisBP:0   MisRate:0.00%    MPKI:0.00
PC:4080a     Total:539      MisBP:0   MisRate:0.00%    MPKI:0.00
PC:3ffa4     Total:439      MisBP:0   MisRate:0.00%    MPKI:0.00
PC:1771c     Total:2      MisBP:0   MisRate:0.00%    MPKI:0.00
PC:3ffa0     Total:439      MisBP:0   MisRate:0.00%    MPKI:0.00
PC:17718     Total:7      MisBP:0   MisRate:0.00%    MPKI:0.00
PC:40804     Total:539      MisBP:0   MisRate:0.00%    MPKI:0.00
PC:17716     Total:7      MisBP:0   MisRate:0.00%    MPKI:0.00
PC:36fae     Total:58      MisBP:0   MisRate:0.00%    MPKI:0.00
PC:3ff9c     Total:426      MisBP:0   MisRate:0.00%    MPKI:0.00
PC:16eb0     Total:316      MisBP:0   MisRate:0.00%    MPKI:0.00
PC:17714     Total:7      MisBP:0   MisRate:0.00%    MPKI:0.00
PC:3ff98     Total:426      MisBP:0   MisRate:0.00%    MPKI:0.00
PC:17710     Total:1720      MisBP:0   MisRate:0.00%    MPKI:0.00
PC:407fc     Total:1049      MisBP:0   MisRate:0.00%    MPKI:0.00
PC:16ea8     Total:316      MisBP:0   MisRate:0.00%    MPKI:0.00
PC:1770c     Total:1720      MisBP:0   MisRate:0.00%    MPKI:0.00
PC:3ff92     Total:1401      MisBP:0   MisRate:0.00%    MPKI:0.00
PC:36f82     Total:117      MisBP:0   MisRate:0.00%    MPKI:0.00
PC:36f92     Total:84      MisBP:0   MisRate:0.00%    MPKI:0.00
PC:36f90     Total:84      MisBP:0   MisRate:0.00%    MPKI:0.00
PC:36f8e     Total:116      MisBP:0   MisRate:0.00%    MPKI:0.00
PC:36f8c     Total:116      MisBP:0   MisRate:0.00%    MPKI:0.00
PC:411ac     Total:45      MisBP:0   MisRate:0.00%    MPKI:0.00
PC:36f8a     Total:116      MisBP:0   MisRate:0.00%    MPKI:0.00
PC:36f88     Total:116      MisBP:0   MisRate:0.00%    MPKI:0.00
PC:36f86     Total:116      MisBP:0   MisRate:0.00%    MPKI:0.00
PC:36f84     Total:116      MisBP:0   MisRate:0.00%    MPKI:0.00
PC:411a4     Total:30      MisBP:0   MisRate:0.00%    MPKI:0.00
PC:36f94     Total:83      MisBP:0   MisRate:0.00%    MPKI:0.00
PC:411a2     Total:34      MisBP:0   MisRate:0.00%    MPKI:0.00
PC:180b6     Total:270036      MisBP:0   MisRate:0.00%    MPKI:0.00
PC:36f80     Total:117      MisBP:0   MisRate:0.00%    MPKI:0.00
PC:1ce26     Total:2      MisBP:0   MisRate:0.00%    MPKI:0.00
PC:1ce22     Total:2      MisBP:0   MisRate:0.00%    MPKI:0.00
PC:3b488     Total:548      MisBP:0   MisRate:0.00%    MPKI:0.00
PC:3b486     Total:548      MisBP:0   MisRate:0.00%    MPKI:0.00
PC:1ce1e     Total:2      MisBP:0   MisRate:0.00%    MPKI:0.00
PC:3b484     Total:548      MisBP:0   MisRate:0.00%    MPKI:0.00
PC:36fa2     Total:59      MisBP:0   MisRate:0.00%    MPKI:0.00
PC:36fac     Total:58      MisBP:0   MisRate:0.00%    MPKI:0.00
PC:36faa     Total:58      MisBP:0   MisRate:0.00%    MPKI:0.00
PC:411ca     Total:278      MisBP:0   MisRate:0.00%    MPKI:0.00
PC:36fa8     Total:58      MisBP:0   MisRate:0.00%    MPKI:0.00
PC:411c8     Total:278      MisBP:0   MisRate:0.00%    MPKI:0.00
PC:36fa6     Total:58      MisBP:0   MisRate:0.00%    MPKI:0.00
PC:411c6     Total:278      MisBP:0   MisRate:0.00%    MPKI:0.00
PC:36fa4     Total:59      MisBP:0   MisRate:0.00%    MPKI:0.00
PC:411c4     Total:278      MisBP:0   MisRate:0.00%    MPKI:0.00
PC:17722     Total:2      MisBP:0   MisRate:0.00%    MPKI:0.00
PC:36fa0     Total:59      MisBP:0   MisRate:0.00%    MPKI:0.00
PC:411c0     Total:556      MisBP:0   MisRate:0.00%    MPKI:0.00
PC:180d4     Total:26190      MisBP:0   MisRate:0.00%    MPKI:0.00
PC:36f9e     Total:83      MisBP:0   MisRate:0.00%    MPKI:0.00
PC:36f9c     Total:83      MisBP:0   MisRate:0.00%    MPKI:0.00
PC:411bc     Total:29      MisBP:0   MisRate:0.00%    MPKI:0.00
PC:36f9a     Total:83      MisBP:0   MisRate:0.00%    MPKI:0.00
PC:36f98     Total:83      MisBP:0   MisRate:0.00%    MPKI:0.00
PC:36f96     Total:83      MisBP:0   MisRate:0.00%    MPKI:0.00
PC:3b732     Total:1316      MisBP:0   MisRate:0.00%    MPKI:0.00
PC:3b7ae     Total:242      MisBP:0   MisRate:0.00%    MPKI:0.00
PC:3b7aa     Total:242      MisBP:0   MisRate:0.00%    MPKI:0.00
PC:3b7a8     Total:243      MisBP:0   MisRate:0.00%    MPKI:0.00
PC:3b7a6     Total:243      MisBP:0   MisRate:0.00%    MPKI:0.00
PC:3b7a4     Total:245      MisBP:0   MisRate:0.00%    MPKI:0.00
PC:3b7a2     Total:245      MisBP:0   MisRate:0.00%    MPKI:0.00
PC:3b73c     Total:1314      MisBP:0   MisRate:0.00%    MPKI:0.00
PC:3b73a     Total:1314      MisBP:0   MisRate:0.00%    MPKI:0.00
PC:3b738     Total:1315      MisBP:0   MisRate:0.00%    MPKI:0.00
PC:3b734     Total:1315      MisBP:0   MisRate:0.00%    MPKI:0.00
PC:3b7b2     Total:58      MisBP:0   MisRate:0.00%    MPKI:0.00
PC:3b72e     Total:1316      MisBP:0   MisRate:0.00%    MPKI:0.00
PC:3b72c     Total:1316      MisBP:0   MisRate:0.00%    MPKI:0.00
PC:3b728     Total:1228      MisBP:0   MisRate:0.00%    MPKI:0.00
PC:3b724     Total:1228      MisBP:0   MisRate:0.00%    MPKI:0.00
PC:3b722     Total:636      MisBP:0   MisRate:0.00%    MPKI:0.00
PC:3b720     Total:636      MisBP:0   MisRate:0.00%    MPKI:0.00
PC:3b71e     Total:636      MisBP:0   MisRate:0.00%    MPKI:0.00
PC:3b71a     Total:788      MisBP:0   MisRate:0.00%    MPKI:0.00
PC:3b714     Total:804      MisBP:0   MisRate:0.00%    MPKI:0.00
PC:411d6     Total:266      MisBP:0   MisRate:0.00%    MPKI:0.00
PC:411e0     Total:212      MisBP:0   MisRate:0.00%    MPKI:0.00
PC:36fbe     Total:25      MisBP:0   MisRate:0.00%    MPKI:0.00
PC:411de     Total:212      MisBP:0   MisRate:0.00%    MPKI:0.00
PC:36fbc     Total:25      MisBP:0   MisRate:0.00%    MPKI:0.00
PC:36fba     Total:25      MisBP:0   MisRate:0.00%    MPKI:0.00
PC:411da     Total:607      MisBP:0   MisRate:0.00%    MPKI:0.00
PC:36fb8     Total:25      MisBP:0   MisRate:0.00%    MPKI:0.00
PC:411d8     Total:266      MisBP:0   MisRate:0.00%    MPKI:0.00
PC:36fb6     Total:25      MisBP:0   MisRate:0.00%    MPKI:0.00
PC:3b710     Total:804      MisBP:0   MisRate:0.00%    MPKI:0.00
PC:36fb4     Total:25      MisBP:0   MisRate:0.00%    MPKI:0.00
PC:36fb2     Total:26      MisBP:0   MisRate:0.00%    MPKI:0.00
PC:411d2     Total:271      MisBP:0   MisRate:0.00%    MPKI:0.00
PC:36fb0     Total:26      MisBP:0   MisRate:0.00%    MPKI:0.00
PC:1ce1a     Total:2      MisBP:0   MisRate:0.00%    MPKI:0.00
PC:3b7bc     Total:58      MisBP:0   MisRate:0.00%    MPKI:0.00
PC:3b7b8     Total:58      MisBP:0   MisRate:0.00%    MPKI:0.00
PC:3b7b6     Total:58      MisBP:0   MisRate:0.00%    MPKI:0.00
PC:3b7b4     Total:58      MisBP:0   MisRate:0.00%    MPKI:0.00
PC:3b982     Total:583      MisBP:0   MisRate:0.00%    MPKI:0.00
PC:3b9a0     Total:317      MisBP:0   MisRate:0.00%    MPKI:0.00
PC:3b99e     Total:317      MisBP:0   MisRate:0.00%    MPKI:0.00
PC:3b99a     Total:317      MisBP:0   MisRate:0.00%    MPKI:0.00
PC:3b996     Total:317      MisBP:0   MisRate:0.00%    MPKI:0.00
PC:3b994     Total:317      MisBP:0   MisRate:0.00%    MPKI:0.00
PC:3b990     Total:318      MisBP:0   MisRate:0.00%    MPKI:0.00
PC:3b98c     Total:583      MisBP:0   MisRate:0.00%    MPKI:0.00
PC:3b98a     Total:583      MisBP:0   MisRate:0.00%    MPKI:0.00
PC:3b988     Total:583      MisBP:0   MisRate:0.00%    MPKI:0.00
PC:3b984     Total:583      MisBP:0   MisRate:0.00%    MPKI:0.00
PC:3b9a2     Total:317      MisBP:0   MisRate:0.00%    MPKI:0.00
PC:3b97e     Total:583      MisBP:0   MisRate:0.00%    MPKI:0.00
PC:9314e     Total:1005      MisBP:0   MisRate:0.00%    MPKI:0.00
PC:17728     Total:2      MisBP:0   MisRate:0.00%    MPKI:0.00
PC:40814     Total:413      MisBP:0   MisRate:0.00%    MPKI:0.00
PC:3ffae     Total:1070      MisBP:0   MisRate:0.00%    MPKI:0.00
PC:16ec2     Total:29575      MisBP:0   MisRate:0.00%    MPKI:0.00
PC:17726     Total:2      MisBP:0   MisRate:0.00%    MPKI:0.00
PC:17724     Total:2      MisBP:0   MisRate:0.00%    MPKI:0.00
PC:40810     Total:539      MisBP:0   MisRate:0.00%    MPKI:0.00
PC:3b9be     Total:310      MisBP:0   MisRate:0.00%    MPKI:0.00
PC:3b70c     Total:582      MisBP:0   MisRate:0.00%    MPKI:0.00
PC:3b70a     Total:582      MisBP:0   MisRate:0.00%    MPKI:0.00
PC:3b9d4     Total:711      MisBP:0   MisRate:0.00%    MPKI:0.00
PC:3b9d2     Total:711      MisBP:0   MisRate:0.00%    MPKI:0.00
PC:3b9d0     Total:711      MisBP:0   MisRate:0.00%    MPKI:0.00
PC:3b9ce     Total:310      MisBP:0   MisRate:0.00%    MPKI:0.00
PC:3b9ca     Total:310      MisBP:0   MisRate:0.00%    MPKI:0.00
PC:3b9c6     Total:310      MisBP:0   MisRate:0.00%    MPKI:0.00
PC:3b9c2     Total:310      MisBP:0   MisRate:0.00%    MPKI:0.00
PC:3b83e     Total:133      MisBP:0   MisRate:0.00%    MPKI:0.00
PC:3b9bc     Total:706      MisBP:0   MisRate:0.00%    MPKI:0.00
PC:3b9ba     Total:706      MisBP:0   MisRate:0.00%    MPKI:0.00
PC:3b9b6     Total:1241      MisBP:0   MisRate:0.00%    MPKI:0.00
PC:3b9b4     Total:678      MisBP:0   MisRate:0.00%    MPKI:0.00
PC:3b9b2     Total:678      MisBP:0   MisRate:0.00%    MPKI:0.00
PC:3b9ac     Total:317      MisBP:0   MisRate:0.00%    MPKI:0.00
PC:3b9aa     Total:317      MisBP:0   MisRate:0.00%    MPKI:0.00
PC:3b9a8     Total:317      MisBP:0   MisRate:0.00%    MPKI:0.00
PC:3b9a4     Total:317      MisBP:0   MisRate:0.00%    MPKI:0.00
PC:3f226     Total:61      MisBP:0   MisRate:0.00%    MPKI:0.00
PC:18a8a     Total:857      MisBP:0   MisRate:0.00%    MPKI:0.00
PC:41310     Total:820      MisBP:0   MisRate:0.00%    MPKI:0.00
PC:18224     Total:217174      MisBP:0   MisRate:0.00%    MPKI:0.00
PC:18a84     Total:857      MisBP:0   MisRate:0.00%    MPKI:0.00
PC:41b70     Total:1      MisBP:0   MisRate:0.00%    MPKI:0.00
PC:4130a     Total:784      MisBP:0   MisRate:0.00%    MPKI:0.00
PC:18a82     Total:857      MisBP:0   MisRate:0.00%    MPKI:0.00
PC:3f22c     Total:61      MisBP:0   MisRate:0.00%    MPKI:0.00
PC:3f228     Total:61      MisBP:0   MisRate:0.00%    MPKI:0.00
PC:1613c     Total:79631      MisBP:0   MisRate:0.00%    MPKI:0.00
PC:41312     Total:803      MisBP:0   MisRate:0.00%    MPKI:0.00
PC:3f222     Total:61      MisBP:0   MisRate:0.00%    MPKI:0.00
PC:16136     Total:144117      MisBP:0   MisRate:0.00%    MPKI:0.00
PC:16996     Total:8338      MisBP:0   MisRate:0.00%    MPKI:0.00
PC:3f314     Total:63      MisBP:0   MisRate:0.00%    MPKI:0.00
PC:3f310     Total:63      MisBP:0   MisRate:0.00%    MPKI:0.00
PC:16a88     Total:5393      MisBP:0   MisRate:0.00%    MPKI:0.00
PC:3f306     Total:1      MisBP:0   MisRate:0.00%    MPKI:0.00
PC:1621a     Total:1806      MisBP:0   MisRate:0.00%    MPKI:0.00
PC:16a7e     Total:5393      MisBP:0   MisRate:0.00%    MPKI:0.00
PC:381fa     Total:33799      MisBP:0   MisRate:0.00%    MPKI:0.00
PC:3d940     Total:39      MisBP:0   MisRate:0.00%    MPKI:0.00
PC:479e4     Total:40      MisBP:0   MisRate:0.00%    MPKI:0.00
PC:3d7c2     Total:281      MisBP:0   MisRate:0.00%    MPKI:0.00
PC:3a83a     Total:5      MisBP:0   MisRate:0.00%    MPKI:0.00
PC:3a834     Total:37      MisBP:0   MisRate:0.00%    MPKI:0.00
PC:9ec4c     Total:7      MisBP:0   MisRate:0.00%    MPKI:0.00
PC:381fe     Total:33799      MisBP:0   MisRate:0.00%    MPKI:0.00
PC:396f8     Total:91      MisBP:0   MisRate:0.00%    MPKI:0.00
PC:9ec48     Total:7      MisBP:0   MisRate:0.00%    MPKI:0.00
PC:3f302     Total:32      MisBP:0   MisRate:0.00%    MPKI:0.00
PC:396f4     Total:91      MisBP:0   MisRate:0.00%    MPKI:0.00
PC:396f0     Total:91      MisBP:0   MisRate:0.00%    MPKI:0.00
PC:8bd6e     Total:146      MisBP:0   MisRate:0.00%    MPKI:0.00
PC:8bd58     Total:321      MisBP:0   MisRate:0.00%    MPKI:0.00
PC:39b80     Total:16      MisBP:0   MisRate:0.00%    MPKI:0.00
PC:18a8e     Total:857      MisBP:0   MisRate:0.00%    MPKI:0.00
PC:41b7a     Total:1      MisBP:0   MisRate:0.00%    MPKI:0.00
PC:41314     Total:803      MisBP:0   MisRate:0.00%    MPKI:0.00
PC:18228     Total:217174      MisBP:0   MisRate:0.00%    MPKI:0.00
PC:3f2c8     Total:1      MisBP:0   MisRate:0.00%    MPKI:0.00
PC:3f2e0     Total:1      MisBP:0   MisRate:0.00%    MPKI:0.00
PC:161f4     Total:112009      MisBP:0   MisRate:0.00%    MPKI:0.00
PC:3f2dc     Total:1      MisBP:0   MisRate:0.00%    MPKI:0.00
PC:161f0     Total:112025      MisBP:0   MisRate:0.00%    MPKI:0.00
PC:3f2d8     Total:1      MisBP:0   MisRate:0.00%    MPKI:0.00
PC:161ec     Total:114253      MisBP:0   MisRate:0.00%    MPKI:0.00
PC:3f2d4     Total:1      MisBP:0   MisRate:0.00%    MPKI:0.00
PC:16a4c     Total:4127      MisBP:0   MisRate:0.00%    MPKI:0.00
PC:3f2d0     Total:1      MisBP:0   MisRate:0.00%    MPKI:0.00
PC:3f2cc     Total:1      MisBP:0   MisRate:0.00%    MPKI:0.00
PC:16a5c     Total:4062      MisBP:0   MisRate:0.00%    MPKI:0.00
PC:161dc     Total:87886      MisBP:0   MisRate:0.00%    MPKI:0.00
PC:3f2c6     Total:1      MisBP:0   MisRate:0.00%    MPKI:0.00
PC:16a3c     Total:5586      MisBP:0   MisRate:0.00%    MPKI:0.00
PC:3f2c2     Total:5      MisBP:0   MisRate:0.00%    MPKI:0.00
PC:3f2be     Total:7      MisBP:0   MisRate:0.00%    MPKI:0.00
PC:161d2     Total:89866      MisBP:0   MisRate:0.00%    MPKI:0.00
PC:16a36     Total:4792      MisBP:0   MisRate:0.00%    MPKI:0.00
PC:3f2ba     Total:7      MisBP:0   MisRate:0.00%    MPKI:0.00
PC:161ce     Total:89864      MisBP:0   MisRate:0.00%    MPKI:0.00
PC:16a6c     Total:4728      MisBP:0   MisRate:0.00%    MPKI:0.00
PC:3f300     Total:32      MisBP:0   MisRate:0.00%    MPKI:0.00
PC:16214     Total:1820      MisBP:0   MisRate:0.00%    MPKI:0.00
PC:16a78     Total:5477      MisBP:0   MisRate:0.00%    MPKI:0.00
PC:3f2fe     Total:33      MisBP:0   MisRate:0.00%    MPKI:0.00
PC:3f2fa     Total:33      MisBP:0   MisRate:0.00%    MPKI:0.00
PC:16a72     Total:4670      MisBP:0   MisRate:0.00%    MPKI:0.00
PC:3f2f8     Total:33      MisBP:0   MisRate:0.00%    MPKI:0.00
PC:3f2f4     Total:33      MisBP:0   MisRate:0.00%    MPKI:0.00
PC:16208     Total:7517      MisBP:0   MisRate:0.00%    MPKI:0.00
PC:47b62     Total:1197      MisBP:0   MisRate:0.00%    MPKI:0.00
PC:3f2f2     Total:33      MisBP:0   MisRate:0.00%    MPKI:0.00
PC:16206     Total:7517      MisBP:0   MisRate:0.00%    MPKI:0.00
PC:3f2f0     Total:33      MisBP:0   MisRate:0.00%    MPKI:0.00
PC:16204     Total:7517      MisBP:0   MisRate:0.00%    MPKI:0.00
PC:16a68     Total:4281      MisBP:0   MisRate:0.00%    MPKI:0.00
PC:3f2ee     Total:15      MisBP:0   MisRate:0.00%    MPKI:0.00
PC:3f2ea     Total:31      MisBP:0   MisRate:0.00%    MPKI:0.00
PC:3f2e6     Total:9      MisBP:0   MisRate:0.00%    MPKI:0.00
PC:161fa     Total:112005      MisBP:0   MisRate:0.00%    MPKI:0.00
PC:3b8a2     Total:201      MisBP:0   MisRate:0.00%    MPKI:0.00
PC:3b804     Total:428      MisBP:0   MisRate:0.00%    MPKI:0.00
PC:3b802     Total:428      MisBP:0   MisRate:0.00%    MPKI:0.00
PC:3b8be     Total:4      MisBP:0   MisRate:0.00%    MPKI:0.00
PC:3b8ba     Total:4      MisBP:0   MisRate:0.00%    MPKI:0.00
PC:3b8b6     Total:4      MisBP:0   MisRate:0.00%    MPKI:0.00
PC:3b8b4     Total:4      MisBP:0   MisRate:0.00%    MPKI:0.00
PC:3b8b0     Total:4      MisBP:0   MisRate:0.00%    MPKI:0.00
PC:3b8ae     Total:4      MisBP:0   MisRate:0.00%    MPKI:0.00
PC:3b8aa     Total:4      MisBP:0   MisRate:0.00%    MPKI:0.00
PC:3b8a4     Total:201      MisBP:0   MisRate:0.00%    MPKI:0.00
PC:3b808     Total:88      MisBP:0   MisRate:0.00%    MPKI:0.00
PC:3b8a0     Total:201      MisBP:0   MisRate:0.00%    MPKI:0.00
PC:3b6fe     Total:938      MisBP:0   MisRate:0.00%    MPKI:0.00
PC:3b6fa     Total:938      MisBP:0   MisRate:0.00%    MPKI:0.00
PC:3b6f8     Total:938      MisBP:0   MisRate:0.00%    MPKI:0.00
PC:3b6f6     Total:938      MisBP:0   MisRate:0.00%    MPKI:0.00
PC:3b6f4     Total:347      MisBP:0   MisRate:0.00%    MPKI:0.00
PC:3b6f2     Total:349      MisBP:0   MisRate:0.00%    MPKI:0.00
PC:3b6f0     Total:349      MisBP:0   MisRate:0.00%    MPKI:0.00
PC:3b6ee     Total:349      MisBP:0   MisRate:0.00%    MPKI:0.00
PC:3b822     Total:415      MisBP:0   MisRate:0.00%    MPKI:0.00
PC:3b83c     Total:134      MisBP:0   MisRate:0.00%    MPKI:0.00
PC:3b83a     Total:134      MisBP:0   MisRate:0.00%    MPKI:0.00
PC:3b838     Total:134      MisBP:0   MisRate:0.00%    MPKI:0.00
PC:3b836     Total:134      MisBP:0   MisRate:0.00%    MPKI:0.00
PC:3b834     Total:190      MisBP:0   MisRate:0.00%    MPKI:0.00
PC:3b832     Total:190      MisBP:0   MisRate:0.00%    MPKI:0.00
PC:3b82e     Total:190      MisBP:0   MisRate:0.00%    MPKI:0.00
PC:3b82a     Total:190      MisBP:0   MisRate:0.00%    MPKI:0.00
PC:3b828     Total:190      MisBP:0   MisRate:0.00%    MPKI:0.00
PC:3b6ec     Total:349      MisBP:0   MisRate:0.00%    MPKI:0.00
PC:3b820     Total:415      MisBP:0   MisRate:0.00%    MPKI:0.00
PC:3b81c     Total:88      MisBP:0   MisRate:0.00%    MPKI:0.00
PC:3b818     Total:88      MisBP:0   MisRate:0.00%    MPKI:0.00
PC:3b816     Total:88      MisBP:0   MisRate:0.00%    MPKI:0.00
PC:3b814     Total:88      MisBP:0   MisRate:0.00%    MPKI:0.00
PC:3b812     Total:88      MisBP:0   MisRate:0.00%    MPKI:0.00
PC:3b810     Total:88      MisBP:0   MisRate:0.00%    MPKI:0.00
PC:3b80e     Total:88      MisBP:0   MisRate:0.00%    MPKI:0.00
PC:3b80a     Total:88      MisBP:0   MisRate:0.00%    MPKI:0.00
PC:51756     Total:1272      MisBP:0   MisRate:0.00%    MPKI:0.00
PC:3cf06     Total:25      MisBP:0   MisRate:0.00%    MPKI:0.00
PC:51778     Total:1125      MisBP:0   MisRate:0.00%    MPKI:0.00
PC:3cf02     Total:6      MisBP:0   MisRate:0.00%    MPKI:0.00
PC:5176a     Total:1208      MisBP:0   MisRate:0.00%    MPKI:0.00
PC:51762     Total:1216      MisBP:0   MisRate:0.00%    MPKI:0.00
PC:3ceec     Total:17      MisBP:0   MisRate:0.00%    MPKI:0.00
PC:5175e     Total:1216      MisBP:0   MisRate:0.00%    MPKI:0.00
PC:3cee8     Total:17      MisBP:0   MisRate:0.00%    MPKI:0.00
PC:5175a     Total:1216      MisBP:0   MisRate:0.00%    MPKI:0.00
PC:5177c     Total:1125      MisBP:0   MisRate:0.00%    MPKI:0.00
PC:3cee0     Total:28      MisBP:0   MisRate:0.00%    MPKI:0.00
PC:51752     Total:1272      MisBP:0   MisRate:0.00%    MPKI:0.00
PC:51748     Total:1272      MisBP:0   MisRate:0.00%    MPKI:0.00
PC:3ced2     Total:20      MisBP:0   MisRate:0.00%    MPKI:0.00
PC:3d8b90     Total:2      MisBP:0   MisRate:0.00%    MPKI:0.00
PC:51746     Total:1272      MisBP:0   MisRate:0.00%    MPKI:0.00
PC:51742     Total:1272      MisBP:0   MisRate:0.00%    MPKI:0.00
PC:5173e     Total:1272      MisBP:0   MisRate:0.00%    MPKI:0.00
PC:3cec8     Total:20      MisBP:0   MisRate:0.00%    MPKI:0.00
PC:3b248     Total:1      MisBP:0   MisRate:0.00%    MPKI:0.00
PC:3b264     Total:1      MisBP:0   MisRate:0.00%    MPKI:0.00
PC:3b260     Total:1      MisBP:0   MisRate:0.00%    MPKI:0.00
PC:3b25c     Total:1      MisBP:0   MisRate:0.00%    MPKI:0.00
PC:3b25a     Total:1      MisBP:0   MisRate:0.00%    MPKI:0.00
PC:3b256     Total:1      MisBP:0   MisRate:0.00%    MPKI:0.00
PC:3b254     Total:1      MisBP:0   MisRate:0.00%    MPKI:0.00
PC:3b252     Total:1      MisBP:0   MisRate:0.00%    MPKI:0.00
PC:3b24e     Total:1      MisBP:0   MisRate:0.00%    MPKI:0.00
PC:3b24a     Total:1      MisBP:0   MisRate:0.00%    MPKI:0.00
PC:3b684     Total:22      MisBP:0   MisRate:0.00%    MPKI:0.00
PC:3b246     Total:112      MisBP:0   MisRate:0.00%    MPKI:0.00
PC:3b244     Total:112      MisBP:0   MisRate:0.00%    MPKI:0.00
PC:3b240     Total:124      MisBP:0   MisRate:0.00%    MPKI:0.00
PC:518fc     Total:213      MisBP:0   MisRate:0.00%    MPKI:0.00
PC:518fa     Total:213      MisBP:0   MisRate:0.00%    MPKI:0.00
PC:518f8     Total:213      MisBP:0   MisRate:0.00%    MPKI:0.00
PC:518f6     Total:213      MisBP:0   MisRate:0.00%    MPKI:0.00
PC:518f2     Total:213      MisBP:0   MisRate:0.00%    MPKI:0.00
PC:518dc     Total:214      MisBP:0   MisRate:0.00%    MPKI:0.00
PC:3b474     Total:82      MisBP:0   MisRate:0.00%    MPKI:0.00
PC:3b492     Total:708      MisBP:0   MisRate:0.00%    MPKI:0.00
PC:1ce2a     Total:2      MisBP:0   MisRate:0.00%    MPKI:0.00
PC:3b490     Total:708      MisBP:0   MisRate:0.00%    MPKI:0.00
PC:1ce16     Total:302      MisBP:0   MisRate:0.00%    MPKI:0.00
PC:3b47c     Total:245      MisBP:0   MisRate:0.00%    MPKI:0.00
PC:1ce14     Total:308      MisBP:0   MisRate:0.00%    MPKI:0.00
PC:3b47a     Total:245      MisBP:0   MisRate:0.00%    MPKI:0.00
PC:1ce10     Total:308      MisBP:0   MisRate:0.00%    MPKI:0.00
PC:3b476     Total:82      MisBP:0   MisRate:0.00%    MPKI:0.00
PC:1ce0e     Total:308      MisBP:0   MisRate:0.00%    MPKI:0.00
PC:3b494     Total:708      MisBP:0   MisRate:0.00%    MPKI:0.00
PC:1ce0a     Total:308      MisBP:0   MisRate:0.00%    MPKI:0.00
PC:3b470     Total:82      MisBP:0   MisRate:0.00%    MPKI:0.00
PC:1ce06     Total:308      MisBP:0   MisRate:0.00%    MPKI:0.00
PC:3b46c     Total:164      MisBP:0   MisRate:0.00%    MPKI:0.00
PC:3b46a     Total:82      MisBP:0   MisRate:0.00%    MPKI:0.00
PC:3b468     Total:82      MisBP:0   MisRate:0.00%    MPKI:0.00
PC:3b464     Total:82      MisBP:0   MisRate:0.00%    MPKI:0.00
PC:3b446     Total:895      MisBP:0   MisRate:0.00%    MPKI:0.00
PC:3b43e     Total:1124      MisBP:0   MisRate:0.00%    MPKI:0.00
PC:3b4a6     Total:514      MisBP:0   MisRate:0.00%    MPKI:0.00
PC:3861e     Total:113598      MisBP:0   MisRate:0.00%    MPKI:0.00
PC:1b4b2     Total:1825      MisBP:0   MisRate:0.00%    MPKI:0.00
PC:1b4a0     Total:15433      MisBP:0   MisRate:0.00%    MPKI:0.00
PC:3b4ba     Total:448      MisBP:0   MisRate:0.00%    MPKI:0.00
PC:3b4b8     Total:448      MisBP:0   MisRate:0.00%    MPKI:0.00
PC:3b4b4     Total:448      MisBP:0   MisRate:0.00%    MPKI:0.00
PC:3b4b0     Total:448      MisBP:0   MisRate:0.00%    MPKI:0.00
PC:3b4ae     Total:448      MisBP:0   MisRate:0.00%    MPKI:0.00
PC:3b4aa     Total:448      MisBP:0   MisRate:0.00%    MPKI:0.00
PC:3b430     Total:563      MisBP:0   MisRate:0.00%    MPKI:0.00
PC:3b4a4     Total:514      MisBP:0   MisRate:0.00%    MPKI:0.00
PC:1ce3a     Total:2      MisBP:0   MisRate:0.00%    MPKI:0.00
PC:3b4a0     Total:514      MisBP:0   MisRate:0.00%    MPKI:0.00
PC:1ce36     Total:2      MisBP:0   MisRate:0.00%    MPKI:0.00
PC:3b49c     Total:514      MisBP:0   MisRate:0.00%    MPKI:0.00
PC:1ce34     Total:2      MisBP:0   MisRate:0.00%    MPKI:0.00
PC:1ce32     Total:2      MisBP:0   MisRate:0.00%    MPKI:0.00
PC:3b498     Total:915      MisBP:0   MisRate:0.00%    MPKI:0.00
PC:1ce2e     Total:2      MisBP:0   MisRate:0.00%    MPKI:0.00
PC:18256     Total:503      MisBP:0   MisRate:0.00%    MPKI:0.00
PC:3bc08     Total:1      MisBP:0   MisRate:0.00%    MPKI:0.00
PC:3bc04     Total:19      MisBP:0   MisRate:0.00%    MPKI:0.00
PC:3bc02     Total:19      MisBP:0   MisRate:0.00%    MPKI:0.00
PC:3bc00     Total:19      MisBP:0   MisRate:0.00%    MPKI:0.00
PC:40ae6     Total:193      MisBP:0   MisRate:0.00%    MPKI:0.00
PC:1825e     Total:503      MisBP:0   MisRate:0.00%    MPKI:0.00
PC:4134a     Total:7      MisBP:0   MisRate:0.00%    MPKI:0.00
PC:40ae2     Total:193      MisBP:0   MisRate:0.00%    MPKI:0.00
PC:1825a     Total:503      MisBP:0   MisRate:0.00%    MPKI:0.00
PC:40ade     Total:193      MisBP:0   MisRate:0.00%    MPKI:0.00
PC:3bc0a     Total:1      MisBP:0   MisRate:0.00%    MPKI:0.00
PC:41342     Total:7      MisBP:0   MisRate:0.00%    MPKI:0.00
PC:18252     Total:522      MisBP:0   MisRate:0.00%    MPKI:0.00
PC:4133e     Total:7      MisBP:0   MisRate:0.00%    MPKI:0.00
PC:40ad8     Total:201      MisBP:0   MisRate:0.00%    MPKI:0.00
PC:40ad6     Total:201      MisBP:0   MisRate:0.00%    MPKI:0.00
PC:1824e     Total:597      MisBP:0   MisRate:0.00%    MPKI:0.00
PC:4133a     Total:66      MisBP:0   MisRate:0.00%    MPKI:0.00
PC:40ad2     Total:228      MisBP:0   MisRate:0.00%    MPKI:0.00
PC:1824a     Total:597      MisBP:0   MisRate:0.00%    MPKI:0.00
PC:3bc20     Total:566      MisBP:0   MisRate:0.00%    MPKI:0.00
PC:3bb7c     Total:612      MisBP:0   MisRate:0.00%    MPKI:0.00
PC:3b428     Total:592      MisBP:0   MisRate:0.00%    MPKI:0.00
PC:3b424     Total:592      MisBP:0   MisRate:0.00%    MPKI:0.00
PC:3b41e     Total:592      MisBP:0   MisRate:0.00%    MPKI:0.00
PC:3b416     Total:601      MisBP:0   MisRate:0.00%    MPKI:0.00
PC:3b40c     Total:601      MisBP:0   MisRate:0.00%    MPKI:0.00
PC:3b408     Total:601      MisBP:0   MisRate:0.00%    MPKI:0.00
PC:3b404     Total:6051      MisBP:0   MisRate:0.00%    MPKI:0.00
PC:3bc22     Total:566      MisBP:0   MisRate:0.00%    MPKI:0.00
PC:9f06c     Total:17      MisBP:0   MisRate:0.00%    MPKI:0.00
PC:3bc1e     Total:566      MisBP:0   MisRate:0.00%    MPKI:0.00
PC:3bc1c     Total:566      MisBP:0   MisRate:0.00%    MPKI:0.00
PC:3bc1a     Total:566      MisBP:0   MisRate:0.00%    MPKI:0.00
PC:3bc18     Total:566      MisBP:0   MisRate:0.00%    MPKI:0.00
PC:3bc16     Total:1      MisBP:0   MisRate:0.00%    MPKI:0.00
PC:3bc12     Total:1      MisBP:0   MisRate:0.00%    MPKI:0.00
PC:3bc10     Total:1      MisBP:0   MisRate:0.00%    MPKI:0.00
PC:3bc0e     Total:1      MisBP:0   MisRate:0.00%    MPKI:0.00
PC:3bc0c     Total:1      MisBP:0   MisRate:0.00%    MPKI:0.00
PC:39b72     Total:411      MisBP:0   MisRate:0.00%    MPKI:0.00
PC:39b84     Total:16      MisBP:0   MisRate:0.00%    MPKI:0.00
PC:1b51e     Total:38      MisBP:0   MisRate:0.00%    MPKI:0.00
PC:1b51a     Total:38      MisBP:0   MisRate:0.00%    MPKI:0.00
PC:39b7c     Total:77      MisBP:0   MisRate:0.00%    MPKI:0.00
PC:1b516     Total:38      MisBP:0   MisRate:0.00%    MPKI:0.00
PC:39b7a     Total:77      MisBP:0   MisRate:0.00%    MPKI:0.00
PC:1b514     Total:38      MisBP:0   MisRate:0.00%    MPKI:0.00
PC:39b76     Total:399      MisBP:0   MisRate:0.00%    MPKI:0.00
PC:1b510     Total:38      MisBP:0   MisRate:0.00%    MPKI:0.00
PC:39b74     Total:399      MisBP:0   MisRate:0.00%    MPKI:0.00
PC:1b522     Total:38      MisBP:0   MisRate:0.00%    MPKI:0.00
PC:1b50c     Total:1639      MisBP:0   MisRate:0.00%    MPKI:0.00
PC:39b70     Total:411      MisBP:0   MisRate:0.00%    MPKI:0.00
PC:1b50a     Total:1639      MisBP:0   MisRate:0.00%    MPKI:0.00
PC:39b6e     Total:411      MisBP:0   MisRate:0.00%    MPKI:0.00
PC:1b508     Total:1639      MisBP:0   MisRate:0.00%    MPKI:0.00
PC:1b4fe     Total:570      MisBP:0   MisRate:0.00%    MPKI:0.00
PC:1b4fa     Total:570      MisBP:0   MisRate:0.00%    MPKI:0.00
PC:39b5e     Total:417      MisBP:0   MisRate:0.00%    MPKI:0.00
PC:1b4f8     Total:570      MisBP:0   MisRate:0.00%    MPKI:0.00
PC:39b9c     Total:16      MisBP:0   MisRate:0.00%    MPKI:0.00
PC:39bb2     Total:16      MisBP:0   MisRate:0.00%    MPKI:0.00
PC:8bd8a     Total:29      MisBP:0   MisRate:0.00%    MPKI:0.00
PC:1b54c     Total:1606      MisBP:0   MisRate:0.00%    MPKI:0.00
PC:1b548     Total:1606      MisBP:0   MisRate:0.00%    MPKI:0.00
PC:39ba4     Total:16      MisBP:0   MisRate:0.00%    MPKI:0.00
PC:1b53e     Total:38      MisBP:0   MisRate:0.00%    MPKI:0.00
PC:39ba0     Total:16      MisBP:0   MisRate:0.00%    MPKI:0.00
PC:1b53a     Total:38      MisBP:0   MisRate:0.00%    MPKI:0.00
PC:1b538     Total:38      MisBP:0   MisRate:0.00%    MPKI:0.00
PC:1b4f4     Total:570      MisBP:0   MisRate:0.00%    MPKI:0.00
PC:1b536     Total:38      MisBP:0   MisRate:0.00%    MPKI:0.00
PC:39b98     Total:16      MisBP:0   MisRate:0.00%    MPKI:0.00
PC:8bd70     Total:145      MisBP:0   MisRate:0.00%    MPKI:0.00
PC:1b532     Total:38      MisBP:0   MisRate:0.00%    MPKI:0.00
PC:39b94     Total:16      MisBP:0   MisRate:0.00%    MPKI:0.00
PC:8bd6c     Total:146      MisBP:0   MisRate:0.00%    MPKI:0.00
PC:1b52e     Total:38      MisBP:0   MisRate:0.00%    MPKI:0.00
PC:1b52a     Total:38      MisBP:0   MisRate:0.00%    MPKI:0.00
PC:1b526     Total:38      MisBP:0   MisRate:0.00%    MPKI:0.00
PC:39b2a     Total:612      MisBP:0   MisRate:0.00%    MPKI:0.00
PC:39b34     Total:594      MisBP:0   MisRate:0.00%    MPKI:0.00
PC:1b4ce     Total:576      MisBP:0   MisRate:0.00%    MPKI:0.00
PC:39b32     Total:594      MisBP:0   MisRate:0.00%    MPKI:0.00
PC:39b30     Total:594      MisBP:0   MisRate:0.00%    MPKI:0.00
PC:1b4ca     Total:1713      MisBP:0   MisRate:0.00%    MPKI:0.00
PC:39b2e     Total:599      MisBP:0   MisRate:0.00%    MPKI:0.00
PC:1b4c8     Total:1713      MisBP:0   MisRate:0.00%    MPKI:0.00
PC:9f080     Total:14      MisBP:0   MisRate:0.00%    MPKI:0.00
PC:39b2c     Total:599      MisBP:0   MisRate:0.00%    MPKI:0.00
PC:1b4c6     Total:1714      MisBP:0   MisRate:0.00%    MPKI:0.00
PC:3863a     Total:8365      MisBP:0   MisRate:0.00%    MPKI:0.00
PC:1b4c4     Total:1714      MisBP:0   MisRate:0.00%    MPKI:0.00
PC:9f07c     Total:45      MisBP:0   MisRate:0.00%    MPKI:0.00
PC:1b4c2     Total:1714      MisBP:0   MisRate:0.00%    MPKI:0.00
PC:9f078     Total:47      MisBP:0   MisRate:0.00%    MPKI:0.00
PC:3862a     Total:79965      MisBP:0   MisRate:0.00%    MPKI:0.00
PC:1b4be     Total:1780      MisBP:0   MisRate:0.00%    MPKI:0.00
PC:9f074     Total:51      MisBP:0   MisRate:0.00%    MPKI:0.00
PC:38626     Total:58533      MisBP:0   MisRate:0.00%    MPKI:0.00
PC:1b4ba     Total:1780      MisBP:0   MisRate:0.00%    MPKI:0.00
PC:39b42     Total:413      MisBP:0   MisRate:0.00%    MPKI:0.00
PC:39b56     Total:527      MisBP:0   MisRate:0.00%    MPKI:0.00
PC:1b4f0     Total:570      MisBP:0   MisRate:0.00%    MPKI:0.00
PC:39b52     Total:522      MisBP:0   MisRate:0.00%    MPKI:0.00
PC:1b4ec     Total:576      MisBP:0   MisRate:0.00%    MPKI:0.00
PC:1b4e8     Total:576      MisBP:0   MisRate:0.00%    MPKI:0.00
PC:39b4a     Total:555      MisBP:0   MisRate:0.00%    MPKI:0.00
PC:1b4e4     Total:576      MisBP:0   MisRate:0.00%    MPKI:0.00
PC:39b46     Total:413      MisBP:0   MisRate:0.00%    MPKI:0.00
PC:1b4e0     Total:576      MisBP:0   MisRate:0.00%    MPKI:0.00
PC:41336     Total:87      MisBP:0   MisRate:0.00%    MPKI:0.00
PC:1b4dc     Total:576      MisBP:0   MisRate:0.00%    MPKI:0.00
PC:39b3e     Total:508      MisBP:0   MisRate:0.00%    MPKI:0.00
PC:1b4d8     Total:576      MisBP:0   MisRate:0.00%    MPKI:0.00
PC:1b4d4     Total:576      MisBP:0   MisRate:0.00%    MPKI:0.00
PC:9f08c     Total:12      MisBP:0   MisRate:0.00%    MPKI:0.00
PC:3863e     Total:8365      MisBP:0   MisRate:0.00%    MPKI:0.00
PC:39b38     Total:542      MisBP:0   MisRate:0.00%    MPKI:0.00
PC:1b4d2     Total:576      MisBP:0   MisRate:0.00%    MPKI:0.00
PC:9f088     Total:12      MisBP:0   MisRate:0.00%    MPKI:0.00
PC:3b0fe     Total:3137      MisBP:0   MisRate:0.00%    MPKI:0.00
PC:3af32     Total:1991      MisBP:0   MisRate:0.00%    MPKI:0.00
PC:3af2e     Total:1991      MisBP:0   MisRate:0.00%    MPKI:0.00
PC:3af2c     Total:1991      MisBP:0   MisRate:0.00%    MPKI:0.00
PC:3af2a     Total:1991      MisBP:0   MisRate:0.00%    MPKI:0.00
PC:3af28     Total:1991      MisBP:0   MisRate:0.00%    MPKI:0.00
PC:3af26     Total:1560      MisBP:0   MisRate:0.00%    MPKI:0.00
PC:3b10e     Total:1021      MisBP:0   MisRate:0.00%    MPKI:0.00
PC:3b10a     Total:1021      MisBP:0   MisRate:0.00%    MPKI:0.00
PC:3b108     Total:1021      MisBP:0   MisRate:0.00%    MPKI:0.00
PC:3b102     Total:3137      MisBP:0   MisRate:0.00%    MPKI:0.00
PC:3af36     Total:1750      MisBP:0   MisRate:0.00%    MPKI:0.00
PC:3b0fc     Total:3310      MisBP:0   MisRate:0.00%    MPKI:0.00
PC:3b0fa     Total:3310      MisBP:0   MisRate:0.00%    MPKI:0.00
PC:3b0f8     Total:3310      MisBP:0   MisRate:0.00%    MPKI:0.00
PC:3ae0e     Total:3616      MisBP:0   MisRate:0.00%    MPKI:0.00
PC:1c7a4     Total:2171      MisBP:0   MisRate:0.00%    MPKI:0.00
PC:3ae0a     Total:3616      MisBP:0   MisRate:0.00%    MPKI:0.00
PC:3ae3c     Total:1      MisBP:0   MisRate:0.00%    MPKI:0.00
PC:3ae34     Total:112      MisBP:0   MisRate:0.00%    MPKI:0.00
PC:3ae26     Total:116      MisBP:0   MisRate:0.00%    MPKI:0.00
PC:3bb4c     Total:628      MisBP:0   MisRate:0.00%    MPKI:0.00
PC:3bb62     Total:620      MisBP:0   MisRate:0.00%    MPKI:0.00
PC:3bb60     Total:620      MisBP:0   MisRate:0.00%    MPKI:0.00
PC:3bb5e     Total:620      MisBP:0   MisRate:0.00%    MPKI:0.00
PC:3bb5c     Total:620      MisBP:0   MisRate:0.00%    MPKI:0.00
PC:3bb5a     Total:620      MisBP:0   MisRate:0.00%    MPKI:0.00
PC:3bb56     Total:620      MisBP:0   MisRate:0.00%    MPKI:0.00
PC:3bb54     Total:628      MisBP:0   MisRate:0.00%    MPKI:0.00
PC:3bb52     Total:628      MisBP:0   MisRate:0.00%    MPKI:0.00
PC:3bb50     Total:628      MisBP:0   MisRate:0.00%    MPKI:0.00
PC:3ae1c     Total:3857      MisBP:0   MisRate:0.00%    MPKI:0.00
PC:3bb4a     Total:628      MisBP:0   MisRate:0.00%    MPKI:0.00
PC:3bb44     Total:629      MisBP:0   MisRate:0.00%    MPKI:0.00
PC:3bb42     Total:629      MisBP:0   MisRate:0.00%    MPKI:0.00
PC:3af4a     Total:1455      MisBP:0   MisRate:0.00%    MPKI:0.00
PC:3af46     Total:1455      MisBP:0   MisRate:0.00%    MPKI:0.00
PC:3af42     Total:4877      MisBP:0   MisRate:0.00%    MPKI:0.00
PC:3af40     Total:4877      MisBP:0   MisRate:0.00%    MPKI:0.00
PC:3af3c     Total:3685      MisBP:0   MisRate:0.00%    MPKI:0.00
PC:3af38     Total:7370      MisBP:0   MisRate:0.00%    MPKI:0.00
PC:39752     Total:1479      MisBP:0   MisRate:0.00%    MPKI:0.00
PC:1ca0c     Total:996      MisBP:0   MisRate:0.00%    MPKI:0.00
PC:1ca0a     Total:996      MisBP:0   MisRate:0.00%    MPKI:0.00
PC:3b070     Total:272      MisBP:0   MisRate:0.00%    MPKI:0.00
PC:1ca06     Total:996      MisBP:0   MisRate:0.00%    MPKI:0.00
PC:3b06c     Total:272      MisBP:0   MisRate:0.00%    MPKI:0.00
PC:3b06a     Total:272      MisBP:0   MisRate:0.00%    MPKI:0.00
PC:1ca02     Total:997      MisBP:0   MisRate:0.00%    MPKI:0.00
PC:3b068     Total:272      MisBP:0   MisRate:0.00%    MPKI:0.00
PC:1c9fe     Total:997      MisBP:0   MisRate:0.00%    MPKI:0.00
PC:3b064     Total:272      MisBP:0   MisRate:0.00%    MPKI:0.00
PC:3b076     Total:120      MisBP:0   MisRate:0.00%    MPKI:0.00
PC:9eca4     Total:40      MisBP:0   MisRate:0.00%    MPKI:0.00
PC:38256     Total:4871      MisBP:0   MisRate:0.00%    MPKI:0.00
PC:39750     Total:1479      MisBP:0   MisRate:0.00%    MPKI:0.00
PC:1b0ea     Total:6871      MisBP:0   MisRate:0.00%    MPKI:0.00
PC:3974e     Total:1479      MisBP:0   MisRate:0.00%    MPKI:0.00
PC:1b0e8     Total:6871      MisBP:0   MisRate:0.00%    MPKI:0.00
PC:3974a     Total:1479      MisBP:0   MisRate:0.00%    MPKI:0.00
PC:1b0e4     Total:6962      MisBP:0   MisRate:0.00%    MPKI:0.00
PC:9ec9c     Total:40      MisBP:0   MisRate:0.00%    MPKI:0.00
PC:3b05a     Total:1318      MisBP:0   MisRate:0.00%    MPKI:0.00
PC:3ae18     Total:6410      MisBP:0   MisRate:0.00%    MPKI:0.00
PC:3ae14     Total:6410      MisBP:0   MisRate:0.00%    MPKI:0.00
PC:3adee     Total:18050      MisBP:0   MisRate:0.00%    MPKI:0.00
PC:3ade2     Total:19975      MisBP:0   MisRate:0.00%    MPKI:0.00
PC:3adc8     Total:1711      MisBP:0   MisRate:0.00%    MPKI:0.00
PC:3adc4     Total:1711      MisBP:0   MisRate:0.00%    MPKI:0.00
PC:3adc0     Total:1711      MisBP:0   MisRate:0.00%    MPKI:0.00
PC:1c9fa     Total:1041      MisBP:0   MisRate:0.00%    MPKI:0.00
PC:3b05e     Total:486      MisBP:0   MisRate:0.00%    MPKI:0.00
PC:3bb64     Total:620      MisBP:0   MisRate:0.00%    MPKI:0.00
PC:1c9f2     Total:1      MisBP:0   MisRate:0.00%    MPKI:0.00
PC:3b058     Total:1318      MisBP:0   MisRate:0.00%    MPKI:0.00
PC:1ca1e     Total:968      MisBP:0   MisRate:0.00%    MPKI:0.00
PC:3b084     Total:1      MisBP:0   MisRate:0.00%    MPKI:0.00
PC:3b080     Total:109      MisBP:0   MisRate:0.00%    MPKI:0.00
PC:3b07c     Total:120      MisBP:0   MisRate:0.00%    MPKI:0.00
PC:1ca14     Total:1946      MisBP:0   MisRate:0.00%    MPKI:0.00
PC:3b07a     Total:120      MisBP:0   MisRate:0.00%    MPKI:0.00
PC:1ca10     Total:973      MisBP:0   MisRate:0.00%    MPKI:0.00
PC:3f1d6     Total:59      MisBP:0   MisRate:0.00%    MPKI:0.00
PC:16106     Total:153335      MisBP:0   MisRate:0.00%    MPKI:0.00
PC:3f1ee     Total:63      MisBP:0   MisRate:0.00%    MPKI:0.00
PC:16102     Total:153354      MisBP:0   MisRate:0.00%    MPKI:0.00
PC:3f1ec     Total:63      MisBP:0   MisRate:0.00%    MPKI:0.00
PC:16100     Total:153372      MisBP:0   MisRate:0.00%    MPKI:0.00
PC:16964     Total:8042      MisBP:0   MisRate:0.00%    MPKI:0.00
PC:3f1e8     Total:63      MisBP:0   MisRate:0.00%    MPKI:0.00
PC:160fc     Total:180368      MisBP:0   MisRate:0.00%    MPKI:0.00
PC:3f1e2     Total:63      MisBP:0   MisRate:0.00%    MPKI:0.00
PC:3f1da     Total:58      MisBP:0   MisRate:0.00%    MPKI:0.00
PC:3f1f2     Total:63      MisBP:0   MisRate:0.00%    MPKI:0.00
PC:160ea     Total:196674      MisBP:0   MisRate:0.00%    MPKI:0.00
PC:3f1d2     Total:59      MisBP:0   MisRate:0.00%    MPKI:0.00
PC:16942     Total:8285      MisBP:0   MisRate:0.00%    MPKI:0.00
PC:3f1c8     Total:59      MisBP:0   MisRate:0.00%    MPKI:0.00
PC:3bbfe     Total:28      MisBP:0   MisRate:0.00%    MPKI:0.00
PC:3bbfc     Total:28      MisBP:0   MisRate:0.00%    MPKI:0.00
PC:3bbfa     Total:28      MisBP:0   MisRate:0.00%    MPKI:0.00
PC:3bbf6     Total:28      MisBP:0   MisRate:0.00%    MPKI:0.00
PC:3bbf2     Total:665      MisBP:0   MisRate:0.00%    MPKI:0.00
PC:3f20c     Total:56      MisBP:0   MisRate:0.00%    MPKI:0.00
PC:40ad0     Total:228      MisBP:0   MisRate:0.00%    MPKI:0.00
PC:18248     Total:597      MisBP:0   MisRate:0.00%    MPKI:0.00
PC:3f21c     Total:61      MisBP:0   MisRate:0.00%    MPKI:0.00
PC:16130     Total:143407      MisBP:0   MisRate:0.00%    MPKI:0.00
PC:3f214     Total:56      MisBP:0   MisRate:0.00%    MPKI:0.00
PC:16128     Total:143439      MisBP:0   MisRate:0.00%    MPKI:0.00
PC:3f212     Total:56      MisBP:0   MisRate:0.00%    MPKI:0.00
PC:1698a     Total:8746      MisBP:0   MisRate:0.00%    MPKI:0.00
PC:16986     Total:8181      MisBP:0   MisRate:0.00%    MPKI:0.00
PC:3bbf0     Total:665      MisBP:0   MisRate:0.00%    MPKI:0.00
PC:16120     Total:143609      MisBP:0   MisRate:0.00%    MPKI:0.00
PC:3f20a     Total:56      MisBP:0   MisRate:0.00%    MPKI:0.00
PC:16980     Total:7447      MisBP:0   MisRate:0.00%    MPKI:0.00
PC:3f202     Total:56      MisBP:0   MisRate:0.00%    MPKI:0.00
PC:16110     Total:153284      MisBP:0   MisRate:0.00%    MPKI:0.00
PC:3f1f8     Total:62      MisBP:0   MisRate:0.00%    MPKI:0.00
PC:1610c     Total:153291      MisBP:0   MisRate:0.00%    MPKI:0.00
PC:3f1f6     Total:62      MisBP:0   MisRate:0.00%    MPKI:0.00
PC:1696e     Total:8042      MisBP:0   MisRate:0.00%    MPKI:0.00
PC:3bba0     Total:799      MisBP:0   MisRate:0.00%    MPKI:0.00
PC:3bbbc     Total:796      MisBP:0   MisRate:0.00%    MPKI:0.00
PC:3bbba     Total:796      MisBP:0   MisRate:0.00%    MPKI:0.00
PC:3bbb8     Total:799      MisBP:0   MisRate:0.00%    MPKI:0.00
PC:3bbb6     Total:799      MisBP:0   MisRate:0.00%    MPKI:0.00
PC:3bbb2     Total:799      MisBP:0   MisRate:0.00%    MPKI:0.00
PC:3bbae     Total:799      MisBP:0   MisRate:0.00%    MPKI:0.00
PC:3bbaa     Total:799      MisBP:0   MisRate:0.00%    MPKI:0.00
PC:3bba6     Total:799      MisBP:0   MisRate:0.00%    MPKI:0.00
PC:3bba4     Total:799      MisBP:0   MisRate:0.00%    MPKI:0.00
PC:3bbbe     Total:796      MisBP:0   MisRate:0.00%    MPKI:0.00
PC:3bb78     Total:603      MisBP:0   MisRate:0.00%    MPKI:0.00
PC:3bb76     Total:603      MisBP:0   MisRate:0.00%    MPKI:0.00
PC:3bb74     Total:603      MisBP:0   MisRate:0.00%    MPKI:0.00
PC:3bb72     Total:606      MisBP:0   MisRate:0.00%    MPKI:0.00
PC:3bb70     Total:606      MisBP:0   MisRate:0.00%    MPKI:0.00
PC:3bb6c     Total:606      MisBP:0   MisRate:0.00%    MPKI:0.00
PC:3bb6a     Total:606      MisBP:0   MisRate:0.00%    MPKI:0.00
PC:3bb68     Total:606      MisBP:0   MisRate:0.00%    MPKI:0.00
PC:3bb66     Total:619      MisBP:0   MisRate:0.00%    MPKI:0.00
PC:3bbd4     Total:750      MisBP:0   MisRate:0.00%    MPKI:0.00
PC:3bbee     Total:665      MisBP:0   MisRate:0.00%    MPKI:0.00
PC:3bbec     Total:665      MisBP:0   MisRate:0.00%    MPKI:0.00
PC:3bbe8     Total:665      MisBP:0   MisRate:0.00%    MPKI:0.00
PC:3bbe4     Total:749      MisBP:0   MisRate:0.00%    MPKI:0.00
PC:3bbe0     Total:1500      MisBP:0   MisRate:0.00%    MPKI:0.00
PC:3bbdc     Total:750      MisBP:0   MisRate:0.00%    MPKI:0.00
PC:3bbda     Total:750      MisBP:0   MisRate:0.00%    MPKI:0.00
PC:3bbd8     Total:750      MisBP:0   MisRate:0.00%    MPKI:0.00
PC:3bbd6     Total:750      MisBP:0   MisRate:0.00%    MPKI:0.00
PC:1b550     Total:1606      MisBP:0   MisRate:0.00%    MPKI:0.00
PC:3bbd0     Total:750      MisBP:0   MisRate:0.00%    MPKI:0.00
PC:3bbce     Total:756      MisBP:0   MisRate:0.00%    MPKI:0.00
PC:3bbcc     Total:756      MisBP:0   MisRate:0.00%    MPKI:0.00
PC:3bbca     Total:756      MisBP:0   MisRate:0.00%    MPKI:0.00
PC:3bbc8     Total:756      MisBP:0   MisRate:0.00%    MPKI:0.00
PC:3bbc6     Total:756      MisBP:0   MisRate:0.00%    MPKI:0.00
PC:3bbc4     Total:756      MisBP:0   MisRate:0.00%    MPKI:0.00
PC:3bbc2     Total:756      MisBP:0   MisRate:0.00%    MPKI:0.00
PC:3bbc0     Total:756      MisBP:0   MisRate:0.00%    MPKI:0.00
PC:1a7e4     Total:373      MisBP:0   MisRate:0.00%    MPKI:0.00
PC:1a836     Total:373      MisBP:0   MisRate:0.00%    MPKI:0.00
PC:1a832     Total:373      MisBP:0   MisRate:0.00%    MPKI:0.00
PC:1a82e     Total:373      MisBP:0   MisRate:0.00%    MPKI:0.00
PC:1a7f6     Total:166      MisBP:0   MisRate:0.00%    MPKI:0.00
PC:1a7f2     Total:373      MisBP:0   MisRate:0.00%    MPKI:0.00
PC:1a7f0     Total:373      MisBP:0   MisRate:0.00%    MPKI:0.00
PC:1a7ee     Total:373      MisBP:0   MisRate:0.00%    MPKI:0.00
PC:1a7ec     Total:373      MisBP:0   MisRate:0.00%    MPKI:0.00
PC:1a7ea     Total:373      MisBP:0   MisRate:0.00%    MPKI:0.00
PC:1a7e8     Total:373      MisBP:0   MisRate:0.00%    MPKI:0.00
PC:1a83a     Total:373      MisBP:0   MisRate:0.00%    MPKI:0.00
PC:1a7e0     Total:3005      MisBP:0   MisRate:0.00%    MPKI:0.00
PC:1a7dc     Total:376      MisBP:0   MisRate:0.00%    MPKI:0.00
PC:3b660     Total:537      MisBP:0   MisRate:0.00%    MPKI:0.00
PC:3b65e     Total:537      MisBP:0   MisRate:0.00%    MPKI:0.00
PC:3b65c     Total:537      MisBP:0   MisRate:0.00%    MPKI:0.00
PC:3b65a     Total:537      MisBP:0   MisRate:0.00%    MPKI:0.00
PC:3b658     Total:418      MisBP:0   MisRate:0.00%    MPKI:0.00
PC:3b656     Total:418      MisBP:0   MisRate:0.00%    MPKI:0.00
PC:3b654     Total:418      MisBP:0   MisRate:0.00%    MPKI:0.00
PC:3b674     Total:1130      MisBP:0   MisRate:0.00%    MPKI:0.00
PC:39c5a     Total:2      MisBP:0   MisRate:0.00%    MPKI:0.00
PC:1b5f4     Total:1181      MisBP:0   MisRate:0.00%    MPKI:0.00
PC:39c56     Total:2      MisBP:0   MisRate:0.00%    MPKI:0.00
PC:1b5f0     Total:9448      MisBP:0   MisRate:0.00%    MPKI:0.00
PC:39c52     Total:2      MisBP:0   MisRate:0.00%    MPKI:0.00
PC:1b5ec     Total:1181      MisBP:0   MisRate:0.00%    MPKI:0.00
PC:3b67c     Total:1086      MisBP:0   MisRate:0.00%    MPKI:0.00
PC:3b67a     Total:1086      MisBP:0   MisRate:0.00%    MPKI:0.00
PC:3b678     Total:1086      MisBP:0   MisRate:0.00%    MPKI:0.00
PC:3b652     Total:418      MisBP:0   MisRate:0.00%    MPKI:0.00
PC:3b670     Total:1235      MisBP:0   MisRate:0.00%    MPKI:0.00
PC:3b66e     Total:1235      MisBP:0   MisRate:0.00%    MPKI:0.00
PC:3b66a     Total:2470      MisBP:0   MisRate:0.00%    MPKI:0.00
PC:3b668     Total:1127      MisBP:0   MisRate:0.00%    MPKI:0.00
PC:3b664     Total:637      MisBP:0   MisRate:0.00%    MPKI:0.00
PC:3b662     Total:536      MisBP:0   MisRate:0.00%    MPKI:0.00
PC:1a878     Total:2107      MisBP:0   MisRate:0.00%    MPKI:0.00
PC:1a858     Total:372      MisBP:0   MisRate:0.00%    MPKI:0.00
PC:1a840     Total:373      MisBP:0   MisRate:0.00%    MPKI:0.00
PC:1a516     Total:3991      MisBP:0   MisRate:0.00%    MPKI:0.00
PC:3b608     Total:28      MisBP:0   MisRate:0.00%    MPKI:0.00
PC:3b604     Total:28      MisBP:0   MisRate:0.00%    MPKI:0.00
PC:3b602     Total:28      MisBP:0   MisRate:0.00%    MPKI:0.00
PC:3b600     Total:28      MisBP:0   MisRate:0.00%    MPKI:0.00
PC:1a50c     Total:2943      MisBP:0   MisRate:0.00%    MPKI:0.00
PC:1a508     Total:1697      MisBP:0   MisRate:0.00%    MPKI:0.00
PC:1a504     Total:1697      MisBP:0   MisRate:0.00%    MPKI:0.00
PC:1a500     Total:1400      MisBP:0   MisRate:0.00%    MPKI:0.00
PC:1a52a     Total:3727      MisBP:0   MisRate:0.00%    MPKI:0.00
PC:1a526     Total:3736      MisBP:0   MisRate:0.00%    MPKI:0.00
PC:3b60a     Total:28      MisBP:0   MisRate:0.00%    MPKI:0.00
PC:1a4fc     Total:1483      MisBP:0   MisRate:0.00%    MPKI:0.00
PC:1a4f8     Total:3768      MisBP:0   MisRate:0.00%    MPKI:0.00
PC:1a4f4     Total:3768      MisBP:0   MisRate:0.00%    MPKI:0.00
PC:1a4f2     Total:405      MisBP:0   MisRate:0.00%    MPKI:0.00
PC:1a4f0     Total:405      MisBP:0   MisRate:0.00%    MPKI:0.00
PC:1a4ec     Total:405      MisBP:0   MisRate:0.00%    MPKI:0.00
PC:1a4e8     Total:405      MisBP:0   MisRate:0.00%    MPKI:0.00
PC:1a4e4     Total:405      MisBP:0   MisRate:0.00%    MPKI:0.00
PC:1a4e2     Total:405      MisBP:0   MisRate:0.00%    MPKI:0.00
PC:3b624     Total:54      MisBP:0   MisRate:0.00%    MPKI:0.00
PC:3b650     Total:418      MisBP:0   MisRate:0.00%    MPKI:0.00
PC:3b64c     Total:426      MisBP:0   MisRate:0.00%    MPKI:0.00
PC:3b64a     Total:426      MisBP:0   MisRate:0.00%    MPKI:0.00
PC:3b648     Total:426      MisBP:0   MisRate:0.00%    MPKI:0.00
PC:3b646     Total:426      MisBP:0   MisRate:0.00%    MPKI:0.00
PC:3b644     Total:426      MisBP:0   MisRate:0.00%    MPKI:0.00
PC:3b640     Total:430      MisBP:0   MisRate:0.00%    MPKI:0.00
PC:3b63e     Total:566      MisBP:0   MisRate:0.00%    MPKI:0.00
PC:3b63c     Total:566      MisBP:0   MisRate:0.00%    MPKI:0.00
PC:1b5f8     Total:1181      MisBP:0   MisRate:0.00%    MPKI:0.00
PC:3b622     Total:54      MisBP:0   MisRate:0.00%    MPKI:0.00
PC:3b620     Total:54      MisBP:0   MisRate:0.00%    MPKI:0.00
PC:3b61e     Total:54      MisBP:0   MisRate:0.00%    MPKI:0.00
PC:3b61c     Total:54      MisBP:0   MisRate:0.00%    MPKI:0.00
PC:3b61a     Total:8      MisBP:0   MisRate:0.00%    MPKI:0.00
PC:3b618     Total:8      MisBP:0   MisRate:0.00%    MPKI:0.00
PC:3b612     Total:28      MisBP:0   MisRate:0.00%    MPKI:0.00
PC:3b60e     Total:28      MisBP:0   MisRate:0.00%    MPKI:0.00
PC:3b60c     Total:28      MisBP:0   MisRate:0.00%    MPKI:0.00
PC:1b6ca     Total:575      MisBP:0   MisRate:0.00%    MPKI:0.00
PC:1b6de     Total:4992      MisBP:0   MisRate:0.00%    MPKI:0.00
PC:39d42     Total:26      MisBP:0   MisRate:0.00%    MPKI:0.00
PC:1b6dc     Total:526      MisBP:0   MisRate:0.00%    MPKI:0.00
PC:39d3e     Total:27      MisBP:0   MisRate:0.00%    MPKI:0.00
PC:1b6d8     Total:526      MisBP:0   MisRate:0.00%    MPKI:0.00
PC:1b6d6     Total:526      MisBP:0   MisRate:0.00%    MPKI:0.00
PC:1b6d4     Total:526      MisBP:0   MisRate:0.00%    MPKI:0.00
PC:1b6d0     Total:575      MisBP:0   MisRate:0.00%    MPKI:0.00
PC:1b6ce     Total:575      MisBP:0   MisRate:0.00%    MPKI:0.00
PC:1b6cc     Total:575      MisBP:0   MisRate:0.00%    MPKI:0.00
PC:39d44     Total:26      MisBP:0   MisRate:0.00%    MPKI:0.00
PC:1b6c6     Total:575      MisBP:0   MisRate:0.00%    MPKI:0.00
PC:1b6c2     Total:575      MisBP:0   MisRate:0.00%    MPKI:0.00
PC:1b6c0     Total:575      MisBP:0   MisRate:0.00%    MPKI:0.00
PC:1b6bc     Total:585      MisBP:0   MisRate:0.00%    MPKI:0.00
PC:1b6b8     Total:588      MisBP:0   MisRate:0.00%    MPKI:0.00
PC:1b6b6     Total:588      MisBP:0   MisRate:0.00%    MPKI:0.00
PC:1b6b2     Total:588      MisBP:0   MisRate:0.00%    MPKI:0.00
PC:1b6ae     Total:588      MisBP:0   MisRate:0.00%    MPKI:0.00
PC:1b6aa     Total:588      MisBP:0   MisRate:0.00%    MPKI:0.00
PC:1b6ee     Total:703      MisBP:0   MisRate:0.00%    MPKI:0.00
PC:3b680     Total:386      MisBP:0   MisRate:0.00%    MPKI:0.00
PC:39de0     Total:88      MisBP:0   MisRate:0.00%    MPKI:0.00
PC:1b77a     Total:2580      MisBP:0   MisRate:0.00%    MPKI:0.00
PC:1b778     Total:430      MisBP:0   MisRate:0.00%    MPKI:0.00
PC:39ddc     Total:88      MisBP:0   MisRate:0.00%    MPKI:0.00
PC:1b776     Total:430      MisBP:0   MisRate:0.00%    MPKI:0.00
PC:39d56     Total:12      MisBP:0   MisRate:0.00%    MPKI:0.00
PC:1b6f0     Total:4215      MisBP:0   MisRate:0.00%    MPKI:0.00
PC:39d54     Total:12      MisBP:0   MisRate:0.00%    MPKI:0.00
PC:1b6a6     Total:588      MisBP:0   MisRate:0.00%    MPKI:0.00
PC:39d52     Total:12      MisBP:0   MisRate:0.00%    MPKI:0.00
PC:1b6ec     Total:703      MisBP:0   MisRate:0.00%    MPKI:0.00
PC:39d50     Total:12      MisBP:0   MisRate:0.00%    MPKI:0.00
PC:1b6e8     Total:2981      MisBP:0   MisRate:0.00%    MPKI:0.00
PC:39d4c     Total:26      MisBP:0   MisRate:0.00%    MPKI:0.00
PC:1b6e6     Total:2981      MisBP:0   MisRate:0.00%    MPKI:0.00
PC:39d4a     Total:26      MisBP:0   MisRate:0.00%    MPKI:0.00
PC:39d48     Total:26      MisBP:0   MisRate:0.00%    MPKI:0.00
PC:1b6e2     Total:2496      MisBP:0   MisRate:0.00%    MPKI:0.00
PC:39c6a     Total:31      MisBP:0   MisRate:0.00%    MPKI:0.00
PC:1b61e     Total:989      MisBP:0   MisRate:0.00%    MPKI:0.00
PC:1b61c     Total:989      MisBP:0   MisRate:0.00%    MPKI:0.00
PC:1b61a     Total:989      MisBP:0   MisRate:0.00%    MPKI:0.00
PC:1b616     Total:989      MisBP:0   MisRate:0.00%    MPKI:0.00
PC:1b614     Total:989      MisBP:0   MisRate:0.00%    MPKI:0.00
PC:1b612     Total:993      MisBP:0   MisRate:0.00%    MPKI:0.00
PC:1b60e     Total:993      MisBP:0   MisRate:0.00%    MPKI:0.00
PC:1b60a     Total:993      MisBP:0   MisRate:0.00%    MPKI:0.00
PC:1b608     Total:993      MisBP:0   MisRate:0.00%    MPKI:0.00
PC:1b606     Total:993      MisBP:0   MisRate:0.00%    MPKI:0.00
PC:1b622     Total:97      MisBP:0   MisRate:0.00%    MPKI:0.00
PC:1b604     Total:993      MisBP:0   MisRate:0.00%    MPKI:0.00
PC:1b602     Total:993      MisBP:0   MisRate:0.00%    MPKI:0.00
PC:39c64     Total:31      MisBP:0   MisRate:0.00%    MPKI:0.00
PC:1b5fe     Total:993      MisBP:0   MisRate:0.00%    MPKI:0.00
PC:39c62     Total:31      MisBP:0   MisRate:0.00%    MPKI:0.00
PC:1b5fc     Total:1181      MisBP:0   MisRate:0.00%    MPKI:0.00
PC:39c60     Total:31      MisBP:0   MisRate:0.00%    MPKI:0.00
PC:1b5fa     Total:1181      MisBP:0   MisRate:0.00%    MPKI:0.00
PC:39c5e     Total:31      MisBP:0   MisRate:0.00%    MPKI:0.00
PC:1b662     Total:662      MisBP:0   MisRate:0.00%    MPKI:0.00
PC:1b6a2     Total:588      MisBP:0   MisRate:0.00%    MPKI:0.00
PC:1b69e     Total:588      MisBP:0   MisRate:0.00%    MPKI:0.00
PC:1b67c     Total:379      MisBP:0   MisRate:0.00%    MPKI:0.00
PC:1b678     Total:379      MisBP:0   MisRate:0.00%    MPKI:0.00
PC:1b674     Total:379      MisBP:0   MisRate:0.00%    MPKI:0.00
PC:1b670     Total:382      MisBP:0   MisRate:0.00%    MPKI:0.00
PC:1b66c     Total:382      MisBP:0   MisRate:0.00%    MPKI:0.00
PC:1b66a     Total:382      MisBP:0   MisRate:0.00%    MPKI:0.00
PC:1b666     Total:382      MisBP:0   MisRate:0.00%    MPKI:0.00
PC:1a4e0     Total:405      MisBP:0   MisRate:0.00%    MPKI:0.00
PC:1b660     Total:662      MisBP:0   MisRate:0.00%    MPKI:0.00
PC:1b65e     Total:662      MisBP:0   MisRate:0.00%    MPKI:0.00
PC:1b63c     Total:97      MisBP:0   MisRate:0.00%    MPKI:0.00
PC:1b638     Total:97      MisBP:0   MisRate:0.00%    MPKI:0.00
PC:1b634     Total:97      MisBP:0   MisRate:0.00%    MPKI:0.00
PC:1b630     Total:97      MisBP:0   MisRate:0.00%    MPKI:0.00
PC:1b62c     Total:97      MisBP:0   MisRate:0.00%    MPKI:0.00
PC:1b628     Total:97      MisBP:0   MisRate:0.00%    MPKI:0.00
PC:1b626     Total:97      MisBP:0   MisRate:0.00%    MPKI:0.00
PC:3b5a8     Total:155      MisBP:0   MisRate:0.00%    MPKI:0.00
PC:1cf52     Total:22      MisBP:0   MisRate:0.00%    MPKI:0.00
PC:3b5b8     Total:574      MisBP:0   MisRate:0.00%    MPKI:0.00
PC:1cf4e     Total:22      MisBP:0   MisRate:0.00%    MPKI:0.00
PC:1cf4c     Total:22      MisBP:0   MisRate:0.00%    MPKI:0.00
PC:3b5b2     Total:155      MisBP:0   MisRate:0.00%    MPKI:0.00
PC:1cf48     Total:22      MisBP:0   MisRate:0.00%    MPKI:0.00
PC:3b5ae     Total:155      MisBP:0   MisRate:0.00%    MPKI:0.00
PC:3b5ac     Total:155      MisBP:0   MisRate:0.00%    MPKI:0.00
PC:1cf44     Total:22      MisBP:0   MisRate:0.00%    MPKI:0.00
PC:3b5aa     Total:155      MisBP:0   MisRate:0.00%    MPKI:0.00
PC:3b5bc     Total:574      MisBP:0   MisRate:0.00%    MPKI:0.00
PC:3b5a4     Total:155      MisBP:0   MisRate:0.00%    MPKI:0.00
PC:1cf3c     Total:104      MisBP:0   MisRate:0.00%    MPKI:0.00
PC:3b5a2     Total:155      MisBP:0   MisRate:0.00%    MPKI:0.00
PC:1cf38     Total:104      MisBP:0   MisRate:0.00%    MPKI:0.00
PC:3b59e     Total:155      MisBP:0   MisRate:0.00%    MPKI:0.00
PC:1cf34     Total:104      MisBP:0   MisRate:0.00%    MPKI:0.00
PC:3b59a     Total:155      MisBP:0   MisRate:0.00%    MPKI:0.00
PC:1cf30     Total:111      MisBP:0   MisRate:0.00%    MPKI:0.00
PC:3b596     Total:155      MisBP:0   MisRate:0.00%    MPKI:0.00
PC:1cf66     Total:5      MisBP:0   MisRate:0.00%    MPKI:0.00
PC:3b5dc     Total:875      MisBP:0   MisRate:0.00%    MPKI:0.00
PC:1cf74     Total:3      MisBP:0   MisRate:0.00%    MPKI:0.00
PC:3b5da     Total:875      MisBP:0   MisRate:0.00%    MPKI:0.00
PC:1cf72     Total:5      MisBP:0   MisRate:0.00%    MPKI:0.00
PC:3b5d8     Total:521      MisBP:0   MisRate:0.00%    MPKI:0.00
PC:3b5d6     Total:521      MisBP:0   MisRate:0.00%    MPKI:0.00
PC:1cf6e     Total:5      MisBP:0   MisRate:0.00%    MPKI:0.00
PC:3b5d4     Total:524      MisBP:0   MisRate:0.00%    MPKI:0.00
PC:3b5d0     Total:524      MisBP:0   MisRate:0.00%    MPKI:0.00
PC:1cf2e     Total:111      MisBP:0   MisRate:0.00%    MPKI:0.00
PC:3b5cc     Total:524      MisBP:0   MisRate:0.00%    MPKI:0.00
PC:1cf64     Total:5      MisBP:0   MisRate:0.00%    MPKI:0.00
PC:3b5ca     Total:524      MisBP:0   MisRate:0.00%    MPKI:0.00
PC:3b5c8     Total:524      MisBP:0   MisRate:0.00%    MPKI:0.00
PC:1cf60     Total:6      MisBP:0   MisRate:0.00%    MPKI:0.00
PC:3b5c6     Total:524      MisBP:0   MisRate:0.00%    MPKI:0.00
PC:3b5c4     Total:524      MisBP:0   MisRate:0.00%    MPKI:0.00
PC:3b5c0     Total:524      MisBP:0   MisRate:0.00%    MPKI:0.00
PC:1cf56     Total:22      MisBP:0   MisRate:0.00%    MPKI:0.00
PC:39bc8     Total:525      MisBP:0   MisRate:0.00%    MPKI:0.00
PC:3b4d2     Total:586      MisBP:0   MisRate:0.00%    MPKI:0.00
PC:3b4d0     Total:586      MisBP:0   MisRate:0.00%    MPKI:0.00
PC:3b4cc     Total:586      MisBP:0   MisRate:0.00%    MPKI:0.00
PC:3b4bc     Total:379      MisBP:0   MisRate:0.00%    MPKI:0.00
PC:1b56a     Total:9597      MisBP:0   MisRate:0.00%    MPKI:0.00
PC:39bce     Total:525      MisBP:0   MisRate:0.00%    MPKI:0.00
PC:1b568     Total:1600      MisBP:0   MisRate:0.00%    MPKI:0.00
PC:39bcc     Total:525      MisBP:0   MisRate:0.00%    MPKI:0.00
PC:8bda4     Total:23      MisBP:0   MisRate:0.00%    MPKI:0.00
PC:1b566     Total:1600      MisBP:0   MisRate:0.00%    MPKI:0.00
PC:3b4d6     Total:581      MisBP:0   MisRate:0.00%    MPKI:0.00
PC:8bda0     Total:23      MisBP:0   MisRate:0.00%    MPKI:0.00
PC:1b562     Total:1606      MisBP:0   MisRate:0.00%    MPKI:0.00
PC:1b560     Total:1606      MisBP:0   MisRate:0.00%    MPKI:0.00
PC:1b55c     Total:1606      MisBP:0   MisRate:0.00%    MPKI:0.00
PC:39bbe     Total:251      MisBP:0   MisRate:0.00%    MPKI:0.00
PC:8bd96     Total:24      MisBP:0   MisRate:0.00%    MPKI:0.00
PC:1b558     Total:1606      MisBP:0   MisRate:0.00%    MPKI:0.00
[...]
PC:38ac4     Total:24737      MisBP:5041   MisRate:20.38%    MPKI:0.02
PC:15dfa     Total:35429      MisBP:5059   MisRate:14.28%    MPKI:0.02
PC:16510     Total:25292      MisBP:5092   MisRate:20.13%    MPKI:0.02
PC:3c66c     Total:80756      MisBP:5104   MisRate:6.32%    MPKI:0.02
PC:19656     Total:55947      MisBP:5148   MisRate:9.20%    MPKI:0.02
PC:1b892     Total:30164      MisBP:5149   MisRate:17.07%    MPKI:0.02
PC:18fce     Total:35984      MisBP:5172   MisRate:14.37%    MPKI:0.02
PC:38728     Total:31380      MisBP:5227   MisRate:16.66%    MPKI:0.02
PC:38200     Total:33139      MisBP:5233   MisRate:15.79%    MPKI:0.02
PC:162d0     Total:38687      MisBP:5241   MisRate:13.55%    MPKI:0.02
PC:19018     Total:33180      MisBP:5274   MisRate:15.90%    MPKI:0.02
PC:38436     Total:93990      MisBP:5310   MisRate:5.65%    MPKI:0.02
PC:15f62     Total:33386      MisBP:5321   MisRate:15.94%    MPKI:0.02
PC:3ac30     Total:26461      MisBP:5332   MisRate:20.15%    MPKI:0.02
PC:1ad0c     Total:67885      MisBP:5337   MisRate:7.86%    MPKI:0.02
PC:383b6     Total:22880      MisBP:5370   MisRate:23.47%    MPKI:0.02
PC:18df0     Total:38854      MisBP:5371   MisRate:13.82%    MPKI:0.02
PC:1c300     Total:34511      MisBP:5455   MisRate:15.81%    MPKI:0.02
PC:190ce     Total:35082      MisBP:5455   MisRate:15.55%    MPKI:0.02
PC:51360     Total:193662      MisBP:5479   MisRate:2.83%    MPKI:0.02
PC:380a8     Total:43345      MisBP:5481   MisRate:12.65%    MPKI:0.02
PC:37a8e     Total:32332      MisBP:5496   MisRate:17.00%    MPKI:0.02
PC:38162     Total:128977      MisBP:5512   MisRate:4.27%    MPKI:0.02
PC:1596a     Total:277266      MisBP:5534   MisRate:2.00%    MPKI:0.02
PC:1628c     Total:41014      MisBP:5629   MisRate:13.72%    MPKI:0.02
PC:37d4c     Total:71667      MisBP:5669   MisRate:7.91%    MPKI:0.02
PC:1c0b6     Total:52308      MisBP:5673   MisRate:10.85%    MPKI:0.02
PC:192ea     Total:65296      MisBP:5691   MisRate:8.72%    MPKI:0.02
PC:381da     Total:59449      MisBP:5708   MisRate:9.60%    MPKI:0.02
PC:1af18     Total:46147      MisBP:5710   MisRate:12.37%    MPKI:0.02
PC:37d52     Total:69041      MisBP:5717   MisRate:8.28%    MPKI:0.02
PC:38710     Total:62536      MisBP:5744   MisRate:9.19%    MPKI:0.02
PC:165ae     Total:25746      MisBP:5834   MisRate:22.66%    MPKI:0.02
PC:18f84     Total:30983      MisBP:5898   MisRate:19.04%    MPKI:0.02
PC:3d5c4     Total:22126      MisBP:5992   MisRate:27.08%    MPKI:0.02
PC:51368     Total:136744      MisBP:6008   MisRate:4.39%    MPKI:0.02
PC:3ad78     Total:55325      MisBP:6036   MisRate:10.91%    MPKI:0.02
PC:1629a     Total:41151      MisBP:6074   MisRate:14.76%    MPKI:0.02
PC:158e2     Total:20982      MisBP:6148   MisRate:29.30%    MPKI:0.02
PC:1635e     Total:64795      MisBP:6188   MisRate:9.55%    MPKI:0.02
PC:3d9dc     Total:46318      MisBP:6258   MisRate:13.51%    MPKI:0.02
PC:17ef2     Total:73945      MisBP:6320   MisRate:8.55%    MPKI:0.02
PC:1acc2     Total:70031      MisBP:6343   MisRate:9.06%    MPKI:0.02
PC:1c04a     Total:83252      MisBP:6397   MisRate:7.68%    MPKI:0.02
PC:3c62a     Total:70048      MisBP:6405   MisRate:9.14%    MPKI:0.02
PC:1c472     Total:32634      MisBP:6422   MisRate:19.68%    MPKI:0.02
PC:3871c     Total:47821      MisBP:6428   MisRate:13.44%    MPKI:0.02
PC:18dde     Total:45677      MisBP:6444   MisRate:14.11%    MPKI:0.02
PC:3ab12     Total:42271      MisBP:6448   MisRate:15.25%    MPKI:0.02
PC:18a14     Total:20770      MisBP:6448   MisRate:31.04%    MPKI:0.02
PC:383a2     Total:40679      MisBP:6517   MisRate:16.02%    MPKI:0.02
PC:382e0     Total:46501      MisBP:6545   MisRate:14.07%    MPKI:0.02
PC:195cc     Total:262624      MisBP:6569   MisRate:2.50%    MPKI:0.02
PC:3d8e2     Total:55989      MisBP:6582   MisRate:11.76%    MPKI:0.02
PC:18dfa     Total:46034      MisBP:6848   MisRate:14.88%    MPKI:0.02
PC:3828e     Total:119998      MisBP:6958   MisRate:5.80%    MPKI:0.02
PC:15942     Total:176737      MisBP:7114   MisRate:4.03%    MPKI:0.02
PC:3810e     Total:97655      MisBP:7141   MisRate:7.31%    MPKI:0.02
PC:16270     Total:43510      MisBP:7225   MisRate:16.61%    MPKI:0.02
PC:190a6     Total:52263      MisBP:7247   MisRate:13.87%    MPKI:0.02
PC:3c7b2     Total:36323      MisBP:7313   MisRate:20.13%    MPKI:0.02
PC:1630e     Total:79308      MisBP:7345   MisRate:9.26%    MPKI:0.02
PC:19a82     Total:335194      MisBP:7411   MisRate:2.21%    MPKI:0.02
PC:3847c     Total:44551      MisBP:7462   MisRate:16.75%    MPKI:0.02
PC:38124     Total:79331      MisBP:7557   MisRate:9.53%    MPKI:0.02
PC:3c74a     Total:107437      MisBP:7778   MisRate:7.24%    MPKI:0.03
PC:1c200     Total:68596      MisBP:7787   MisRate:11.35%    MPKI:0.03
PC:380b4     Total:56719      MisBP:7832   MisRate:13.81%    MPKI:0.03
PC:15972     Total:268003      MisBP:7863   MisRate:2.93%    MPKI:0.03
PC:18cde     Total:188891      MisBP:7890   MisRate:4.18%    MPKI:0.03
PC:158ca     Total:63044      MisBP:7967   MisRate:12.64%    MPKI:0.03
PC:15cb2     Total:58095      MisBP:8014   MisRate:13.79%    MPKI:0.03
PC:379f2     Total:21735      MisBP:8135   MisRate:37.43%    MPKI:0.03
PC:1acf6     Total:47674      MisBP:8199   MisRate:17.20%    MPKI:0.03
PC:19a5e     Total:43931      MisBP:8207   MisRate:18.68%    MPKI:0.03
PC:38fa8     Total:28179      MisBP:8255   MisRate:29.29%    MPKI:0.03
PC:3c64a     Total:100458      MisBP:8260   MisRate:8.22%    MPKI:0.03
PC:197f4     Total:34960      MisBP:8302   MisRate:23.75%    MPKI:0.03
PC:18066     Total:223050      MisBP:8305   MisRate:3.72%    MPKI:0.03
PC:1b82c     Total:81290      MisBP:8348   MisRate:10.27%    MPKI:0.03
PC:166a6     Total:63363      MisBP:8398   MisRate:13.25%    MPKI:0.03
PC:38182     Total:34149      MisBP:8466   MisRate:24.79%    MPKI:0.03
PC:1ad02     Total:43813      MisBP:8501   MisRate:19.40%    MPKI:0.03
PC:1637a     Total:64495      MisBP:8570   MisRate:13.29%    MPKI:0.03
PC:15d22     Total:52094      MisBP:8596   MisRate:16.50%    MPKI:0.03
PC:3d95a     Total:21739      MisBP:8616   MisRate:39.63%    MPKI:0.03
PC:15e30     Total:41362      MisBP:8623   MisRate:20.85%    MPKI:0.03
PC:15c9c     Total:158571      MisBP:8954   MisRate:5.65%    MPKI:0.03
PC:3818c     Total:29071      MisBP:9013   MisRate:31.00%    MPKI:0.03
PC:381e4     Total:54142      MisBP:9122   MisRate:16.85%    MPKI:0.03
PC:1c442     Total:32186      MisBP:9242   MisRate:28.71%    MPKI:0.03
PC:17efc     Total:62893      MisBP:9301   MisRate:14.79%    MPKI:0.03
PC:3d8a8     Total:42715      MisBP:9364   MisRate:21.92%    MPKI:0.03
PC:1acbc     Total:79965      MisBP:9407   MisRate:11.76%    MPKI:0.03
PC:1608e     Total:37034      MisBP:9434   MisRate:25.47%    MPKI:0.03
PC:38442     Total:75369      MisBP:9465   MisRate:12.56%    MPKI:0.03
PC:1c01e     Total:100593      MisBP:9523   MisRate:9.47%    MPKI:0.03
PC:1c15c     Total:76335      MisBP:9527   MisRate:12.48%    MPKI:0.03
PC:380cc     Total:67115      MisBP:9564   MisRate:14.25%    MPKI:0.03
PC:3883c     Total:30106      MisBP:9583   MisRate:31.83%    MPKI:0.03
PC:1c088     Total:56510      MisBP:9778   MisRate:17.30%    MPKI:0.03
PC:18d56     Total:103159      MisBP:9836   MisRate:9.53%    MPKI:0.03
PC:37ee2     Total:33941      MisBP:9857   MisRate:29.04%    MPKI:0.03
PC:162d6     Total:67721      MisBP:9877   MisRate:14.58%    MPKI:0.03
PC:37ed8     Total:74253      MisBP:9916   MisRate:13.35%    MPKI:0.03
PC:512ba     Total:91857      MisBP:10320   MisRate:11.23%    MPKI:0.03
PC:159ce     Total:245567      MisBP:10328   MisRate:4.21%    MPKI:0.03
PC:381a4     Total:90434      MisBP:10332   MisRate:11.42%    MPKI:0.03
PC:381b6     Total:67915      MisBP:10520   MisRate:15.49%    MPKI:0.03
PC:15e66     Total:47079      MisBP:10588   MisRate:22.49%    MPKI:0.03
PC:24ccc     Total:185946      MisBP:10596   MisRate:5.70%    MPKI:0.03
PC:382bc     Total:43532      MisBP:10634   MisRate:24.43%    MPKI:0.03
PC:166b2     Total:66625      MisBP:10734   MisRate:16.11%    MPKI:0.03
PC:15ca2     Total:92826      MisBP:10741   MisRate:11.57%    MPKI:0.03
PC:1b862     Total:56561      MisBP:10839   MisRate:19.16%    MPKI:0.03
PC:18f6a     Total:141089      MisBP:10843   MisRate:7.69%    MPKI:0.03
PC:156fa     Total:109287      MisBP:10850   MisRate:9.93%    MPKI:0.04
PC:3809c     Total:53895      MisBP:10862   MisRate:20.15%    MPKI:0.04
PC:154b2     Total:218832      MisBP:10866   MisRate:4.97%    MPKI:0.04
PC:382b6     Total:61722      MisBP:10976   MisRate:17.78%    MPKI:0.04
PC:1614c     Total:70411      MisBP:11099   MisRate:15.76%    MPKI:0.04
PC:1bfe2     Total:208659      MisBP:11152   MisRate:5.34%    MPKI:0.04
PC:386b8     Total:50716      MisBP:11231   MisRate:22.14%    MPKI:0.04
PC:3ab1c     Total:38147      MisBP:11515   MisRate:30.19%    MPKI:0.04
PC:15bea     Total:66704      MisBP:11693   MisRate:17.53%    MPKI:0.04
PC:15cac     Total:78204      MisBP:11784   MisRate:15.07%    MPKI:0.04
PC:176c2     Total:250122      MisBP:11813   MisRate:4.72%    MPKI:0.04
PC:38516     Total:45739      MisBP:11831   MisRate:25.87%    MPKI:0.04
PC:1c1d2     Total:93827      MisBP:11955   MisRate:12.74%    MPKI:0.04
PC:3817a     Total:48989      MisBP:11965   MisRate:24.42%    MPKI:0.04
PC:1615e     Total:125337      MisBP:12079   MisRate:9.64%    MPKI:0.04
PC:3844a     Total:66837      MisBP:12096   MisRate:18.10%    MPKI:0.04
PC:3797e     Total:74539      MisBP:12372   MisRate:16.60%    MPKI:0.04
PC:163b0     Total:61017      MisBP:12410   MisRate:20.34%    MPKI:0.04
PC:192ac     Total:125247      MisBP:12528   MisRate:10.00%    MPKI:0.04
PC:3c692     Total:92430      MisBP:12667   MisRate:13.70%    MPKI:0.04
PC:199dc     Total:89367      MisBP:12740   MisRate:14.26%    MPKI:0.04
PC:19a6c     Total:81758      MisBP:12963   MisRate:15.86%    MPKI:0.04
PC:38692     Total:78845      MisBP:13048   MisRate:16.55%    MPKI:0.04
PC:1aca0     Total:91259      MisBP:13200   MisRate:14.46%    MPKI:0.04
PC:38414     Total:56688      MisBP:13310   MisRate:23.48%    MPKI:0.04
PC:1accc     Total:62075      MisBP:13562   MisRate:21.85%    MPKI:0.04
PC:37e8a     Total:86974      MisBP:13605   MisRate:15.64%    MPKI:0.04
PC:3862c     Total:79965      MisBP:13610   MisRate:17.02%    MPKI:0.04
PC:162e0     Total:75598      MisBP:13716   MisRate:18.14%    MPKI:0.04
PC:38088     Total:69861      MisBP:13791   MisRate:19.74%    MPKI:0.04
PC:38470     Total:63438      MisBP:13850   MisRate:21.83%    MPKI:0.04
PC:3d808     Total:100789      MisBP:13885   MisRate:13.78%    MPKI:0.04
PC:15e94     Total:45957      MisBP:13985   MisRate:30.43%    MPKI:0.05
PC:1925a     Total:115321      MisBP:14108   MisRate:12.23%    MPKI:0.05
PC:1973c     Total:82491      MisBP:14248   MisRate:17.27%    MPKI:0.05
PC:19754     Total:92731      MisBP:14261   MisRate:15.38%    MPKI:0.05
PC:38344     Total:75815      MisBP:14382   MisRate:18.97%    MPKI:0.05
PC:164c6     Total:85096      MisBP:14427   MisRate:16.95%    MPKI:0.05
PC:159d4     Total:212355      MisBP:14524   MisRate:6.84%    MPKI:0.05
PC:156b6     Total:228040      MisBP:14597   MisRate:6.40%    MPKI:0.05
PC:164b4     Total:85905      MisBP:14626   MisRate:17.03%    MPKI:0.05
PC:19a52     Total:77320      MisBP:14631   MisRate:18.92%    MPKI:0.05
PC:17eae     Total:110503      MisBP:14822   MisRate:13.41%    MPKI:0.05
PC:15bd2     Total:79201      MisBP:14849   MisRate:18.75%    MPKI:0.05
PC:15bc0     Total:74285      MisBP:15089   MisRate:20.31%    MPKI:0.05
PC:3850a     Total:93743      MisBP:15170   MisRate:16.18%    MPKI:0.05
PC:3ab02     Total:98641      MisBP:15467   MisRate:15.68%    MPKI:0.05
PC:1bf82     Total:103640      MisBP:15839   MisRate:15.28%    MPKI:0.05
PC:1c12c     Total:111498      MisBP:16058   MisRate:14.40%    MPKI:0.05
PC:1b7f0     Total:115638      MisBP:16263   MisRate:14.06%    MPKI:0.05
PC:187b4     Total:643794      MisBP:16284   MisRate:2.53%    MPKI:0.05
PC:14e10     Total:68619      MisBP:16396   MisRate:23.89%    MPKI:0.05
PC:1acb8     Total:65746      MisBP:16607   MisRate:25.26%    MPKI:0.05
PC:14e64     Total:115798      MisBP:16666   MisRate:14.39%    MPKI:0.05
PC:14f26     Total:140210      MisBP:16722   MisRate:11.93%    MPKI:0.05
PC:38104     Total:121833      MisBP:16752   MisRate:13.75%    MPKI:0.05
PC:3ca34     Total:104672      MisBP:16820   MisRate:16.07%    MPKI:0.05
PC:3c298     Total:70874      MisBP:16822   MisRate:23.74%    MPKI:0.05
PC:38038     Total:155539      MisBP:16965   MisRate:10.91%    MPKI:0.05
PC:1ace0     Total:118891      MisBP:17038   MisRate:14.33%    MPKI:0.05
PC:1acaa     Total:68912      MisBP:17197   MisRate:24.96%    MPKI:0.06
PC:16198     Total:113556      MisBP:17208   MisRate:15.15%    MPKI:0.06
PC:379ac     Total:196311      MisBP:17397   MisRate:8.86%    MPKI:0.06
PC:3819c     Total:170156      MisBP:17724   MisRate:10.42%    MPKI:0.06
PC:192e0     Total:131797      MisBP:17821   MisRate:13.52%    MPKI:0.06
PC:18bb2     Total:99091      MisBP:17822   MisRate:17.99%    MPKI:0.06
PC:38a32     Total:66099      MisBP:18065   MisRate:27.33%    MPKI:0.06
PC:38060     Total:109401      MisBP:18205   MisRate:16.64%    MPKI:0.06
PC:159e8     Total:214815      MisBP:18723   MisRate:8.72%    MPKI:0.06
PC:381c2     Total:88477      MisBP:18759   MisRate:21.20%    MPKI:0.06
PC:199f6     Total:117947      MisBP:18763   MisRate:15.91%    MPKI:0.06
PC:188ca     Total:178543      MisBP:18887   MisRate:10.58%    MPKI:0.06
PC:15b50     Total:105415      MisBP:19004   MisRate:18.03%    MPKI:0.06
PC:15c92     Total:166908      MisBP:19064   MisRate:11.42%    MPKI:0.06
PC:382a2     Total:91060      MisBP:19393   MisRate:21.30%    MPKI:0.06
PC:1bf88     Total:84573      MisBP:19400   MisRate:22.94%    MPKI:0.06
PC:3ca14     Total:122264      MisBP:19804   MisRate:16.20%    MPKI:0.06
PC:382d0     Total:91300      MisBP:19823   MisRate:21.71%    MPKI:0.06
PC:38338     Total:166966      MisBP:19841   MisRate:11.88%    MPKI:0.06
PC:17de6     Total:123081      MisBP:20104   MisRate:16.33%    MPKI:0.06
PC:379b0     Total:195072      MisBP:20343   MisRate:10.43%    MPKI:0.07
PC:1b7f4     Total:94946      MisBP:20584   MisRate:21.68%    MPKI:0.07
PC:17eb8     Total:102137      MisBP:20631   MisRate:20.20%    MPKI:0.07
PC:1b830     Total:77175      MisBP:20745   MisRate:26.88%    MPKI:0.07
PC:37ce8     Total:125129      MisBP:20815   MisRate:16.63%    MPKI:0.07
PC:37d34     Total:506056      MisBP:20890   MisRate:4.13%    MPKI:0.07
PC:14ee6     Total:134073      MisBP:21059   MisRate:15.71%    MPKI:0.07
PC:1576e     Total:126105      MisBP:21414   MisRate:16.98%    MPKI:0.07
PC:16138     Total:130201      MisBP:21919   MisRate:16.83%    MPKI:0.07
PC:18d4c     Total:123362      MisBP:22063   MisRate:17.88%    MPKI:0.07
PC:15a08     Total:255091      MisBP:22159   MisRate:8.69%    MPKI:0.07
PC:18d34     Total:180677      MisBP:22241   MisRate:12.31%    MPKI:0.07
PC:1acd6     Total:111522      MisBP:22576   MisRate:20.24%    MPKI:0.07
PC:38172     Total:73897      MisBP:23233   MisRate:31.44%    MPKI:0.07
PC:159ee     Total:207781      MisBP:23447   MisRate:11.28%    MPKI:0.08
PC:14ea4     Total:126707      MisBP:23543   MisRate:18.58%    MPKI:0.08
PC:37ce2     Total:138658      MisBP:23580   MisRate:17.01%    MPKI:0.08
PC:19314     Total:141941      MisBP:23889   MisRate:16.83%    MPKI:0.08
PC:3c6e4     Total:121338      MisBP:23980   MisRate:19.76%    MPKI:0.08
PC:38072     Total:166823      MisBP:24508   MisRate:14.69%    MPKI:0.08
PC:37ca4     Total:134152      MisBP:24707   MisRate:18.42%    MPKI:0.08
PC:154ac     Total:209456      MisBP:24891   MisRate:11.88%    MPKI:0.08
PC:1a78a     Total:100680      MisBP:25290   MisRate:25.12%    MPKI:0.08
PC:37d84     Total:343665      MisBP:25316   MisRate:7.37%    MPKI:0.08
PC:159f8     Total:228505      MisBP:25487   MisRate:11.15%    MPKI:0.08
PC:19614     Total:247223      MisBP:25545   MisRate:10.33%    MPKI:0.08
PC:18d6a     Total:91173      MisBP:26000   MisRate:28.52%    MPKI:0.08
PC:17db0     Total:167317      MisBP:26174   MisRate:15.64%    MPKI:0.08
PC:3804c     Total:206889      MisBP:26566   MisRate:12.84%    MPKI:0.09
PC:38030     Total:167097      MisBP:26597   MisRate:15.92%    MPKI:0.09
PC:1bfe8     Total:197053      MisBP:26943   MisRate:13.67%    MPKI:0.09
PC:3829a     Total:118881      MisBP:27010   MisRate:22.72%    MPKI:0.09
PC:15950     Total:183844      MisBP:27272   MisRate:14.83%    MPKI:0.09
PC:3ca0a     Total:177890      MisBP:27367   MisRate:15.38%    MPKI:0.09
PC:18d76     Total:125986      MisBP:27378   MisRate:21.73%    MPKI:0.09
PC:14f62     Total:141910      MisBP:27382   MisRate:19.30%    MPKI:0.09
PC:18d3e     Total:152081      MisBP:27573   MisRate:18.13%    MPKI:0.09
PC:380fe     Total:226318      MisBP:27943   MisRate:12.35%    MPKI:0.09
PC:15a0e     Total:276512      MisBP:27949   MisRate:10.11%    MPKI:0.09
PC:3807e     Total:196722      MisBP:28424   MisRate:14.45%    MPKI:0.09
PC:512b6     Total:256412      MisBP:28887   MisRate:11.27%    MPKI:0.09
PC:155e6     Total:162259      MisBP:29010   MisRate:17.88%    MPKI:0.09
PC:3c73a     Total:210256      MisBP:29139   MisRate:13.86%    MPKI:0.09
PC:18d72     Total:107700      MisBP:29918   MisRate:27.78%    MPKI:0.10
PC:3806a     Total:217964      MisBP:32058   MisRate:14.71%    MPKI:0.10
PC:17fcc     Total:292586      MisBP:32115   MisRate:10.98%    MPKI:0.10
PC:15a1e     Total:131960      MisBP:32300   MisRate:24.48%    MPKI:0.10
PC:37d2e     Total:567552      MisBP:33803   MisRate:5.96%    MPKI:0.11
PC:3816a     Total:118922      MisBP:34293   MisRate:28.84%    MPKI:0.11
PC:18bda     Total:282652      MisBP:34696   MisRate:12.28%    MPKI:0.11
PC:37d8c     Total:294536      MisBP:34935   MisRate:11.86%    MPKI:0.11
PC:157ba     Total:131797      MisBP:36421   MisRate:27.63%    MPKI:0.12
PC:37d48     Total:416770      MisBP:36672   MisRate:8.80%    MPKI:0.12
PC:159fe     Total:236843      MisBP:37489   MisRate:15.83%    MPKI:0.12
PC:1bfa8     Total:144182      MisBP:37736   MisRate:26.17%    MPKI:0.12
PC:37da0     Total:244891      MisBP:38184   MisRate:15.59%    MPKI:0.12
PC:15964     Total:253635      MisBP:38246   MisRate:15.08%    MPKI:0.12
PC:154a2     Total:188978      MisBP:38816   MisRate:20.54%    MPKI:0.13
PC:37de0     Total:306530      MisBP:39278   MisRate:12.81%    MPKI:0.13
PC:512ac     Total:427415      MisBP:40206   MisRate:9.41%    MPKI:0.13
PC:17e74     Total:166129      MisBP:40759   MisRate:24.53%    MPKI:0.13
PC:38052     Total:197141      MisBP:42790   MisRate:21.71%    MPKI:0.14
PC:382aa     Total:210027      MisBP:43454   MisRate:20.69%    MPKI:0.14
PC:1595a     Total:214559      MisBP:45168   MisRate:21.05%    MPKI:0.15
PC:18bde     Total:316087      MisBP:45580   MisRate:14.42%    MPKI:0.15
PC:156e4     Total:320443      MisBP:48371   MisRate:15.10%    MPKI:0.16
PC:1bfca     Total:184068      MisBP:48941   MisRate:26.59%    MPKI:0.16
PC:17dac     Total:233196      MisBP:54519   MisRate:23.38%    MPKI:0.18
PC:1a934     Total:236293      MisBP:54890   MisRate:23.23%    MPKI:0.18
PC:156a4     Total:286394      MisBP:55746   MisRate:19.46%    MPKI:0.18
PC:14fa8     Total:259426      MisBP:56624   MisRate:21.83%    MPKI:0.18
PC:15b40     Total:233105      MisBP:59570   MisRate:25.56%    MPKI:0.19
PC:15a16     Total:258940      MisBP:62799   MisRate:24.25%    MPKI:0.20
PC:14fb8     Total:1412727      MisBP:64155   MisRate:4.54%    MPKI:0.21
PC:24cc8     Total:303461      MisBP:64736   MisRate:21.33%    MPKI:0.21
PC:37d7c     Total:521008      MisBP:75375   MisRate:14.47%    MPKI:0.24
PC:37de6     Total:644148      MisBP:86208   MisRate:13.38%    MPKI:0.28
PC:37e7a     Total:2225350      MisBP:104373   MisRate:4.69%    MPKI:0.34
PC:14fb2     Total:1313970      MisBP:104533   MisRate:7.96%    MPKI:0.34
PC:17694     Total:3543098      MisBP:166943   MisRate:4.71%    MPKI:0.54
Totfetch:620943940  TotInsts:310000000  TotMis : inf%   MPKI : 18.96
=============finish sim!!!!!!=============
Done running SimPoint!
