Global frequency set at 1000000000000 ticks per second
 Register [printBranch()] ExitCallback !!!!!!! 
gem5 Simulator System.  https://www.gem5.org
gem5 is copyrighted software; use the --copyright option for details.

gem5 version 22.0.0.2
gem5 compiled Sep  7 2022 00:42:18
gem5 started Sep  7 2022 22:58:41
gem5 executing on a100, pid 3300090
command line: /data/zxf/gem5/gem5-prof/build/ARM/gem5.fast --outdir=/data/zxf/checkpoint/spec2006/458.sjeng/prof/sjeng_ckp_4 /data/zxf/gem5/gem5-prof/configs/example/se.py --cpu-type O3CPU --cpu-clock 1GHz --num-cpu 1 --l1d-hwp-type=BOPPrefetcher --caches --l2cache --l1i_size 32kB --l1d_size 32kB --l2_size 1MB --l1i_assoc 8 --l1d_assoc 8 --l2_assoc 16 --cacheline_size 64 --mem-type DDR3_2133_8x8 --mem-size 16GB --restore-simpoint-checkpoint -r 4 --checkpoint-dir /data/zxf/checkpoint/spec2006/458.sjeng/ckpt -c sjeng_base.gcc41-64bit -o ref.txt

info: Standard input is not a terminal, disabling listeners.
Resuming from /data/zxf/checkpoint/spec2006/458.sjeng/ckpt/cpt.simpoint_03_inst_12290000000_weight_0.370370_interval_300000000_warmup_10000000
Resuming from SimPoint #3, start_inst:12290000000, weight:0.370370, interval:300000000, warmup:10000000
Switch at curTick count:10000
Switched CPUS @ tick 8056477871500
[(<m5.objects.ArmCPU.ArmAtomicSimpleCPU object at 0x7f75a86ba970>, <m5.objects.ArmCPU.ArmO3CPU object at 0x7f75a86cdbe0>)]
switching cpus



+++++++++++++++++++++++++zxf print simpoint+++++++++++++++++++++++++++
Warmed up! Dumping and resetting stats!


=============start sim!!!!!!=============
PC:194da     Total:654      MisBP:0   MisRate:0.00%    MPKI:0.00
PC:194bc     Total:13615      MisBP:0   MisRate:0.00%    MPKI:0.00
PC:194c2     Total:2022      MisBP:0   MisRate:0.00%    MPKI:0.00
PC:194c6     Total:2022      MisBP:0   MisRate:0.00%    MPKI:0.00
PC:194cc     Total:119      MisBP:0   MisRate:0.00%    MPKI:0.00
PC:194ce     Total:119      MisBP:0   MisRate:0.00%    MPKI:0.00
PC:194d0     Total:119      MisBP:0   MisRate:0.00%    MPKI:0.00
PC:194d2     Total:199      MisBP:0   MisRate:0.00%    MPKI:0.00
PC:194d4     Total:199      MisBP:0   MisRate:0.00%    MPKI:0.00
PC:194d6     Total:199      MisBP:0   MisRate:0.00%    MPKI:0.00
PC:194d8     Total:199      MisBP:0   MisRate:0.00%    MPKI:0.00
PC:194ba     Total:13636      MisBP:0   MisRate:0.00%    MPKI:0.00
PC:194dc     Total:654      MisBP:0   MisRate:0.00%    MPKI:0.00
PC:194de     Total:654      MisBP:0   MisRate:0.00%    MPKI:0.00
PC:194e0     Total:654      MisBP:0   MisRate:0.00%    MPKI:0.00
PC:192c0     Total:7649      MisBP:0   MisRate:0.00%    MPKI:0.00
PC:1e302     Total:36      MisBP:0   MisRate:0.00%    MPKI:0.00
PC:192c2     Total:7649      MisBP:0   MisRate:0.00%    MPKI:0.00
PC:1e304     Total:36      MisBP:0   MisRate:0.00%    MPKI:0.00
PC:192c6     Total:7649      MisBP:0   MisRate:0.00%    MPKI:0.00
PC:192ca     Total:7639      MisBP:0   MisRate:0.00%    MPKI:0.00
PC:1e30c     Total:36      MisBP:0   MisRate:0.00%    MPKI:0.00
PC:19496     Total:19759      MisBP:0   MisRate:0.00%    MPKI:0.00
PC:19466     Total:10969      MisBP:0   MisRate:0.00%    MPKI:0.00
PC:19468     Total:10963      MisBP:0   MisRate:0.00%    MPKI:0.00
PC:1946e     Total:4669      MisBP:0   MisRate:0.00%    MPKI:0.00
PC:19472     Total:4676      MisBP:0   MisRate:0.00%    MPKI:0.00
PC:19474     Total:4676      MisBP:0   MisRate:0.00%    MPKI:0.00
PC:19478     Total:4633      MisBP:0   MisRate:0.00%    MPKI:0.00
PC:1947c     Total:4230      MisBP:0   MisRate:0.00%    MPKI:0.00
PC:1948e     Total:24402      MisBP:0   MisRate:0.00%    MPKI:0.00
PC:19492     Total:19782      MisBP:0   MisRate:0.00%    MPKI:0.00
PC:19494     Total:19773      MisBP:0   MisRate:0.00%    MPKI:0.00
PC:1e30e     Total:36      MisBP:0   MisRate:0.00%    MPKI:0.00
PC:1949a     Total:19754      MisBP:0   MisRate:0.00%    MPKI:0.00
PC:194a0     Total:14463      MisBP:0   MisRate:0.00%    MPKI:0.00
PC:194a2     Total:14196      MisBP:0   MisRate:0.00%    MPKI:0.00
PC:194a4     Total:14170      MisBP:0   MisRate:0.00%    MPKI:0.00
PC:194a8     Total:14097      MisBP:0   MisRate:0.00%    MPKI:0.00
PC:194ac     Total:14093      MisBP:0   MisRate:0.00%    MPKI:0.00
PC:194b2     Total:14068      MisBP:0   MisRate:0.00%    MPKI:0.00
PC:194b4     Total:14067      MisBP:0   MisRate:0.00%    MPKI:0.00
PC:194b8     Total:14009      MisBP:0   MisRate:0.00%    MPKI:0.00
PC:19a0a     Total:7188      MisBP:0   MisRate:0.00%    MPKI:0.00
PC:192f8     Total:375      MisBP:0   MisRate:0.00%    MPKI:0.00
PC:1e33a     Total:12707      MisBP:0   MisRate:0.00%    MPKI:0.00
PC:1e33c     Total:12707      MisBP:0   MisRate:0.00%    MPKI:0.00
PC:192fe     Total:100      MisBP:0   MisRate:0.00%    MPKI:0.00
PC:1e340     Total:12480      MisBP:0   MisRate:0.00%    MPKI:0.00
PC:19300     Total:92      MisBP:0   MisRate:0.00%    MPKI:0.00
PC:19302     Total:92      MisBP:0   MisRate:0.00%    MPKI:0.00
PC:1e344     Total:14052      MisBP:0   MisRate:0.00%    MPKI:0.00
PC:19a04     Total:7188      MisBP:0   MisRate:0.00%    MPKI:0.00
PC:19a06     Total:7188      MisBP:0   MisRate:0.00%    MPKI:0.00
PC:1e336     Total:12768      MisBP:0   MisRate:0.00%    MPKI:0.00
PC:19a0c     Total:7188      MisBP:0   MisRate:0.00%    MPKI:0.00
PC:19a0e     Total:7188      MisBP:0   MisRate:0.00%    MPKI:0.00
PC:19a14     Total:5640      MisBP:0   MisRate:0.00%    MPKI:0.00
PC:19a16     Total:5528      MisBP:0   MisRate:0.00%    MPKI:0.00
PC:19a1a     Total:5528      MisBP:0   MisRate:0.00%    MPKI:0.00
PC:19a1c     Total:5528      MisBP:0   MisRate:0.00%    MPKI:0.00
PC:19a1e     Total:5528      MisBP:0   MisRate:0.00%    MPKI:0.00
PC:19a22     Total:5528      MisBP:0   MisRate:0.00%    MPKI:0.00
PC:19a28     Total:4929      MisBP:0   MisRate:0.00%    MPKI:0.00
PC:1e324     Total:12769      MisBP:0   MisRate:0.00%    MPKI:0.00
PC:192d0     Total:7492      MisBP:0   MisRate:0.00%    MPKI:0.00
PC:192d2     Total:7492      MisBP:0   MisRate:0.00%    MPKI:0.00
PC:1e314     Total:33      MisBP:0   MisRate:0.00%    MPKI:0.00
PC:192d6     Total:7487      MisBP:0   MisRate:0.00%    MPKI:0.00
PC:192d8     Total:7240      MisBP:0   MisRate:0.00%    MPKI:0.00
PC:1e31a     Total:33      MisBP:0   MisRate:0.00%    MPKI:0.00
PC:192dc     Total:7237      MisBP:0   MisRate:0.00%    MPKI:0.00
PC:1e31e     Total:33      MisBP:0   MisRate:0.00%    MPKI:0.00
PC:192e0     Total:7237      MisBP:0   MisRate:0.00%    MPKI:0.00
PC:1e322     Total:12769      MisBP:0   MisRate:0.00%    MPKI:0.00
PC:19464     Total:11565      MisBP:0   MisRate:0.00%    MPKI:0.00
PC:192e6     Total:7213      MisBP:0   MisRate:0.00%    MPKI:0.00
PC:1e328     Total:12769      MisBP:0   MisRate:0.00%    MPKI:0.00
PC:192ea     Total:7501      MisBP:0   MisRate:0.00%    MPKI:0.00
PC:1e32c     Total:12768      MisBP:0   MisRate:0.00%    MPKI:0.00
PC:192ec     Total:7501      MisBP:0   MisRate:0.00%    MPKI:0.00
PC:192f0     Total:7501      MisBP:0   MisRate:0.00%    MPKI:0.00
PC:1e332     Total:12768      MisBP:0   MisRate:0.00%    MPKI:0.00
PC:192f2     Total:7216      MisBP:0   MisRate:0.00%    MPKI:0.00
PC:1e334     Total:12768      MisBP:0   MisRate:0.00%    MPKI:0.00
PC:19ac0     Total:19710      MisBP:0   MisRate:0.00%    MPKI:0.00
PC:193ee     Total:20708      MisBP:0   MisRate:0.00%    MPKI:0.00
PC:193f0     Total:20708      MisBP:0   MisRate:0.00%    MPKI:0.00
PC:41c7a     Total:3      MisBP:0   MisRate:0.00%    MPKI:0.00
PC:193f2     Total:20708      MisBP:0   MisRate:0.00%    MPKI:0.00
PC:193f4     Total:20699      MisBP:0   MisRate:0.00%    MPKI:0.00
PC:193f8     Total:20699      MisBP:0   MisRate:0.00%    MPKI:0.00
PC:41c82     Total:2      MisBP:0   MisRate:0.00%    MPKI:0.00
PC:193fa     Total:20699      MisBP:0   MisRate:0.00%    MPKI:0.00
PC:41c84     Total:2      MisBP:0   MisRate:0.00%    MPKI:0.00
PC:193fc     Total:20699      MisBP:0   MisRate:0.00%    MPKI:0.00
PC:41c76     Total:3      MisBP:0   MisRate:0.00%    MPKI:0.00
PC:19ac2     Total:19710      MisBP:0   MisRate:0.00%    MPKI:0.00
PC:19ac6     Total:19710      MisBP:0   MisRate:0.00%    MPKI:0.00
PC:19ac8     Total:19710      MisBP:0   MisRate:0.00%    MPKI:0.00
PC:19aca     Total:19710      MisBP:0   MisRate:0.00%    MPKI:0.00
PC:19ace     Total:20105      MisBP:0   MisRate:0.00%    MPKI:0.00
PC:19ad0     Total:20105      MisBP:0   MisRate:0.00%    MPKI:0.00
PC:19ad4     Total:20225      MisBP:0   MisRate:0.00%    MPKI:0.00
PC:19ad6     Total:19288      MisBP:0   MisRate:0.00%    MPKI:0.00
PC:19ad8     Total:19534      MisBP:0   MisRate:0.00%    MPKI:0.00
PC:19ada     Total:19534      MisBP:0   MisRate:0.00%    MPKI:0.00
PC:193da     Total:37313      MisBP:0   MisRate:0.00%    MPKI:0.00
PC:1d278     Total:415      MisBP:0   MisRate:0.00%    MPKI:0.00
PC:41c48     Total:29      MisBP:0   MisRate:0.00%    MPKI:0.00
PC:41c4c     Total:29      MisBP:0   MisRate:0.00%    MPKI:0.00
PC:193c4     Total:38150      MisBP:0   MisRate:0.00%    MPKI:0.00
PC:41c4e     Total:29      MisBP:0   MisRate:0.00%    MPKI:0.00
PC:193c6     Total:38345      MisBP:0   MisRate:0.00%    MPKI:0.00
PC:193c8     Total:38345      MisBP:0   MisRate:0.00%    MPKI:0.00
PC:41c5e     Total:24      MisBP:0   MisRate:0.00%    MPKI:0.00
PC:193d6     Total:37319      MisBP:0   MisRate:0.00%    MPKI:0.00
PC:41c62     Total:3      MisBP:0   MisRate:0.00%    MPKI:0.00
PC:19adc     Total:19534      MisBP:0   MisRate:0.00%    MPKI:0.00
PC:41c64     Total:3      MisBP:0   MisRate:0.00%    MPKI:0.00
PC:41c68     Total:3      MisBP:0   MisRate:0.00%    MPKI:0.00
PC:193e0     Total:21311      MisBP:0   MisRate:0.00%    MPKI:0.00
PC:193e2     Total:21308      MisBP:0   MisRate:0.00%    MPKI:0.00
PC:41c6c     Total:3      MisBP:0   MisRate:0.00%    MPKI:0.00
PC:193e4     Total:21308      MisBP:0   MisRate:0.00%    MPKI:0.00
PC:193e6     Total:21308      MisBP:0   MisRate:0.00%    MPKI:0.00
PC:41c72     Total:3      MisBP:0   MisRate:0.00%    MPKI:0.00
PC:193ea     Total:21308      MisBP:0   MisRate:0.00%    MPKI:0.00
PC:19452     Total:24355      MisBP:0   MisRate:0.00%    MPKI:0.00
PC:19440     Total:33033      MisBP:0   MisRate:0.00%    MPKI:0.00
PC:41cce     Total:8      MisBP:0   MisRate:0.00%    MPKI:0.00
PC:19446     Total:33031      MisBP:0   MisRate:0.00%    MPKI:0.00
PC:41cd0     Total:8      MisBP:0   MisRate:0.00%    MPKI:0.00
PC:19448     Total:33301      MisBP:0   MisRate:0.00%    MPKI:0.00
PC:1944a     Total:33295      MisBP:0   MisRate:0.00%    MPKI:0.00
PC:41cd6     Total:1      MisBP:0   MisRate:0.00%    MPKI:0.00
PC:1944e     Total:25494      MisBP:0   MisRate:0.00%    MPKI:0.00
PC:19450     Total:25423      MisBP:0   MisRate:0.00%    MPKI:0.00
PC:41cda     Total:1      MisBP:0   MisRate:0.00%    MPKI:0.00
PC:1943c     Total:35575      MisBP:0   MisRate:0.00%    MPKI:0.00
PC:41cde     Total:1      MisBP:0   MisRate:0.00%    MPKI:0.00
PC:19456     Total:24384      MisBP:0   MisRate:0.00%    MPKI:0.00
PC:19458     Total:24383      MisBP:0   MisRate:0.00%    MPKI:0.00
PC:41ce4     Total:1      MisBP:0   MisRate:0.00%    MPKI:0.00
PC:1945c     Total:24381      MisBP:0   MisRate:0.00%    MPKI:0.00
PC:1945e     Total:24375      MisBP:0   MisRate:0.00%    MPKI:0.00
PC:41ce8     Total:1      MisBP:0   MisRate:0.00%    MPKI:0.00
PC:19462     Total:11582      MisBP:0   MisRate:0.00%    MPKI:0.00
PC:41cec     Total:1      MisBP:0   MisRate:0.00%    MPKI:0.00
PC:19af4     Total:18948      MisBP:0   MisRate:0.00%    MPKI:0.00
PC:19ade     Total:19534      MisBP:0   MisRate:0.00%    MPKI:0.00
PC:19ae2     Total:19534      MisBP:0   MisRate:0.00%    MPKI:0.00
PC:19ae4     Total:19534      MisBP:0   MisRate:0.00%    MPKI:0.00
PC:19ae6     Total:19524      MisBP:0   MisRate:0.00%    MPKI:0.00
PC:19ae8     Total:18952      MisBP:0   MisRate:0.00%    MPKI:0.00
PC:19aea     Total:18952      MisBP:0   MisRate:0.00%    MPKI:0.00
PC:19aec     Total:18951      MisBP:0   MisRate:0.00%    MPKI:0.00
PC:19aee     Total:18951      MisBP:0   MisRate:0.00%    MPKI:0.00
PC:19af0     Total:18951      MisBP:0   MisRate:0.00%    MPKI:0.00
PC:19af2     Total:18951      MisBP:0   MisRate:0.00%    MPKI:0.00
PC:1d282     Total:292      MisBP:0   MisRate:0.00%    MPKI:0.00
PC:19af6     Total:18948      MisBP:0   MisRate:0.00%    MPKI:0.00
PC:19af8     Total:18342      MisBP:0   MisRate:0.00%    MPKI:0.00
PC:19afa     Total:18338      MisBP:0   MisRate:0.00%    MPKI:0.00
PC:19b00     Total:625      MisBP:0   MisRate:0.00%    MPKI:0.00
PC:19436     Total:35576      MisBP:0   MisRate:0.00%    MPKI:0.00
PC:19438     Total:35576      MisBP:0   MisRate:0.00%    MPKI:0.00
PC:41cc2     Total:8      MisBP:0   MisRate:0.00%    MPKI:0.00
PC:1943a     Total:35576      MisBP:0   MisRate:0.00%    MPKI:0.00
PC:41cc4     Total:8      MisBP:0   MisRate:0.00%    MPKI:0.00
PC:2177e     Total:31      MisBP:0   MisRate:0.00%    MPKI:0.00
PC:176f0     Total:463      MisBP:0   MisRate:0.00%    MPKI:0.00
PC:21914     Total:1      MisBP:0   MisRate:0.00%    MPKI:0.00
PC:176f2     Total:463      MisBP:0   MisRate:0.00%    MPKI:0.00
PC:21776     Total:41      MisBP:0   MisRate:0.00%    MPKI:0.00
PC:21916     Total:1      MisBP:0   MisRate:0.00%    MPKI:0.00
PC:176f4     Total:463      MisBP:0   MisRate:0.00%    MPKI:0.00
PC:2191a     Total:1      MisBP:0   MisRate:0.00%    MPKI:0.00
PC:176f8     Total:463      MisBP:0   MisRate:0.00%    MPKI:0.00
PC:2191c     Total:1      MisBP:0   MisRate:0.00%    MPKI:0.00
PC:176fa     Total:463      MisBP:0   MisRate:0.00%    MPKI:0.00
PC:21770     Total:41      MisBP:0   MisRate:0.00%    MPKI:0.00
PC:176fc     Total:463      MisBP:0   MisRate:0.00%    MPKI:0.00
PC:17bae     Total:8828      MisBP:0   MisRate:0.00%    MPKI:0.00
PC:12b6c     Total:909      MisBP:0   MisRate:0.00%    MPKI:0.00
PC:17bb0     Total:8828      MisBP:0   MisRate:0.00%    MPKI:0.00
PC:17bb2     Total:8828      MisBP:0   MisRate:0.00%    MPKI:0.00
PC:12b70     Total:909      MisBP:0   MisRate:0.00%    MPKI:0.00
PC:17bb4     Total:8828      MisBP:0   MisRate:0.00%    MPKI:0.00
PC:12b72     Total:895      MisBP:0   MisRate:0.00%    MPKI:0.00
PC:17bb6     Total:8983      MisBP:0   MisRate:0.00%    MPKI:0.00
PC:17bb8     Total:8983      MisBP:0   MisRate:0.00%    MPKI:0.00
PC:17536     Total:79      MisBP:0   MisRate:0.00%    MPKI:0.00
PC:16fc2     Total:52144      MisBP:0   MisRate:0.00%    MPKI:0.00
PC:176c0     Total:481      MisBP:0   MisRate:0.00%    MPKI:0.00
PC:176c4     Total:481      MisBP:0   MisRate:0.00%    MPKI:0.00
PC:218ea     Total:1      MisBP:0   MisRate:0.00%    MPKI:0.00
PC:176c8     Total:481      MisBP:0   MisRate:0.00%    MPKI:0.00
PC:176cc     Total:481      MisBP:0   MisRate:0.00%    MPKI:0.00
PC:176d0     Total:481      MisBP:0   MisRate:0.00%    MPKI:0.00
PC:176d2     Total:481      MisBP:0   MisRate:0.00%    MPKI:0.00
PC:17534     Total:79      MisBP:0   MisRate:0.00%    MPKI:0.00
PC:21756     Total:11      MisBP:0   MisRate:0.00%    MPKI:0.00
PC:12b76     Total:893      MisBP:0   MisRate:0.00%    MPKI:0.00
PC:21758     Total:11      MisBP:0   MisRate:0.00%    MPKI:0.00
PC:176d8     Total:473      MisBP:0   MisRate:0.00%    MPKI:0.00
PC:1753a     Total:16      MisBP:0   MisRate:0.00%    MPKI:0.00
PC:2175c     Total:14      MisBP:0   MisRate:0.00%    MPKI:0.00
PC:176da     Total:473      MisBP:0   MisRate:0.00%    MPKI:0.00
PC:176de     Total:473      MisBP:0   MisRate:0.00%    MPKI:0.00
PC:176e2     Total:472      MisBP:0   MisRate:0.00%    MPKI:0.00
PC:176e6     Total:472      MisBP:0   MisRate:0.00%    MPKI:0.00
PC:176ea     Total:472      MisBP:0   MisRate:0.00%    MPKI:0.00
PC:32402     Total:1      MisBP:0   MisRate:0.00%    MPKI:0.00
PC:12b98     Total:1152      MisBP:0   MisRate:0.00%    MPKI:0.00
PC:17bdc     Total:9572      MisBP:0   MisRate:0.00%    MPKI:0.00
PC:12b9a     Total:1152      MisBP:0   MisRate:0.00%    MPKI:0.00
PC:17bde     Total:9572      MisBP:0   MisRate:0.00%    MPKI:0.00
PC:17be2     Total:9571      MisBP:0   MisRate:0.00%    MPKI:0.00
PC:17be6     Total:9571      MisBP:0   MisRate:0.00%    MPKI:0.00
PC:17bea     Total:9548      MisBP:0   MisRate:0.00%    MPKI:0.00
PC:17bee     Total:9528      MisBP:0   MisRate:0.00%    MPKI:0.00
PC:12bac     Total:875      MisBP:0   MisRate:0.00%    MPKI:0.00
PC:17bf0     Total:9528      MisBP:0   MisRate:0.00%    MPKI:0.00
PC:17bda     Total:9411      MisBP:0   MisRate:0.00%    MPKI:0.00
PC:1dfbe     Total:238      MisBP:0   MisRate:0.00%    MPKI:0.00
PC:1e034     Total:215      MisBP:0   MisRate:0.00%    MPKI:0.00
PC:1e038     Total:208      MisBP:0   MisRate:0.00%    MPKI:0.00
PC:18ff6     Total:1963      MisBP:0   MisRate:0.00%    MPKI:0.00
PC:1e03c     Total:87      MisBP:0   MisRate:0.00%    MPKI:0.00
PC:18ffa     Total:1963      MisBP:0   MisRate:0.00%    MPKI:0.00
PC:18e5c     Total:99693      MisBP:0   MisRate:0.00%    MPKI:0.00
PC:2307e     Total:399      MisBP:0   MisRate:0.00%    MPKI:0.00
PC:3241c     Total:1      MisBP:0   MisRate:0.00%    MPKI:0.00
PC:17bca     Total:8922      MisBP:0   MisRate:0.00%    MPKI:0.00
PC:17bbc     Total:8973      MisBP:0   MisRate:0.00%    MPKI:0.00
PC:12b7a     Total:787      MisBP:0   MisRate:0.00%    MPKI:0.00
PC:17bbe     Total:8971      MisBP:0   MisRate:0.00%    MPKI:0.00
PC:17bc0     Total:8922      MisBP:0   MisRate:0.00%    MPKI:0.00
PC:12b7e     Total:719      MisBP:0   MisRate:0.00%    MPKI:0.00
PC:17bc2     Total:8922      MisBP:0   MisRate:0.00%    MPKI:0.00
PC:17bc6     Total:8922      MisBP:0   MisRate:0.00%    MPKI:0.00
PC:12b84     Total:719      MisBP:0   MisRate:0.00%    MPKI:0.00
PC:17bc8     Total:8922      MisBP:0   MisRate:0.00%    MPKI:0.00
PC:12b86     Total:711      MisBP:0   MisRate:0.00%    MPKI:0.00
PC:4089a     Total:45      MisBP:0   MisRate:0.00%    MPKI:0.00
PC:17bce     Total:9084      MisBP:0   MisRate:0.00%    MPKI:0.00
PC:17bd0     Total:9084      MisBP:0   MisRate:0.00%    MPKI:0.00
PC:12b8e     Total:706      MisBP:0   MisRate:0.00%    MPKI:0.00
PC:17bd2     Total:9262      MisBP:0   MisRate:0.00%    MPKI:0.00
PC:12b90     Total:706      MisBP:0   MisRate:0.00%    MPKI:0.00
PC:17bd4     Total:9411      MisBP:0   MisRate:0.00%    MPKI:0.00
PC:12b92     Total:706      MisBP:0   MisRate:0.00%    MPKI:0.00
PC:17bd6     Total:9411      MisBP:0   MisRate:0.00%    MPKI:0.00
PC:12b94     Total:692      MisBP:0   MisRate:0.00%    MPKI:0.00
PC:1d91c     Total:3948      MisBP:0   MisRate:0.00%    MPKI:0.00
PC:20dd4     Total:14514      MisBP:0   MisRate:0.00%    MPKI:0.00
PC:16bb4     Total:1      MisBP:0   MisRate:0.00%    MPKI:0.00
PC:20dd6     Total:1      MisBP:0   MisRate:0.00%    MPKI:0.00
PC:1d29a     Total:221      MisBP:0   MisRate:0.00%    MPKI:0.00
PC:1d2a8     Total:221      MisBP:0   MisRate:0.00%    MPKI:0.00
PC:1d2b0     Total:750      MisBP:0   MisRate:0.00%    MPKI:0.00
PC:1d2fc     Total:923      MisBP:0   MisRate:0.00%    MPKI:0.00
PC:1d90a     Total:3966      MisBP:0   MisRate:0.00%    MPKI:0.00
PC:1d914     Total:3966      MisBP:0   MisRate:0.00%    MPKI:0.00
PC:1d918     Total:3948      MisBP:0   MisRate:0.00%    MPKI:0.00
PC:20dd2     Total:14514      MisBP:0   MisRate:0.00%    MPKI:0.00
PC:1d926     Total:3948      MisBP:0   MisRate:0.00%    MPKI:0.00
PC:1d92a     Total:3948      MisBP:0   MisRate:0.00%    MPKI:0.00
PC:1d68c     Total:20351      MisBP:0   MisRate:0.00%    MPKI:0.00
PC:1864a     Total:1836      MisBP:0   MisRate:0.00%    MPKI:0.00
PC:17fd2     Total:3019      MisBP:0   MisRate:0.00%    MPKI:0.00
PC:4085a     Total:68      MisBP:0   MisRate:0.00%    MPKI:0.00
PC:1d690     Total:20350      MisBP:0   MisRate:0.00%    MPKI:0.00
PC:1864e     Total:1836      MisBP:0   MisRate:0.00%    MPKI:0.00
PC:17fd6     Total:3019      MisBP:0   MisRate:0.00%    MPKI:0.00
PC:4085e     Total:68      MisBP:0   MisRate:0.00%    MPKI:0.00
PC:1d2f4     Total:926      MisBP:0   MisRate:0.00%    MPKI:0.00
PC:1d286     Total:292      MisBP:0   MisRate:0.00%    MPKI:0.00
PC:1d28a     Total:292      MisBP:0   MisRate:0.00%    MPKI:0.00
PC:1d28e     Total:292      MisBP:0   MisRate:0.00%    MPKI:0.00
PC:1d2d2     Total:20324      MisBP:0   MisRate:0.00%    MPKI:0.00
PC:1d2d6     Total:20331      MisBP:0   MisRate:0.00%    MPKI:0.00
PC:1d2da     Total:20325      MisBP:0   MisRate:0.00%    MPKI:0.00
PC:1d2de     Total:14014      MisBP:0   MisRate:0.00%    MPKI:0.00
PC:1d2e2     Total:7816      MisBP:0   MisRate:0.00%    MPKI:0.00
PC:1d2e8     Total:7804      MisBP:0   MisRate:0.00%    MPKI:0.00
PC:1d2f0     Total:3706      MisBP:0   MisRate:0.00%    MPKI:0.00
PC:1d694     Total:13226      MisBP:0   MisRate:0.00%    MPKI:0.00
PC:1d2f8     Total:926      MisBP:0   MisRate:0.00%    MPKI:0.00
PC:16ba4     Total:3      MisBP:0   MisRate:0.00%    MPKI:0.00
PC:20dc6     Total:14515      MisBP:0   MisRate:0.00%    MPKI:0.00
PC:16ba8     Total:3      MisBP:0   MisRate:0.00%    MPKI:0.00
PC:20dca     Total:14514      MisBP:0   MisRate:0.00%    MPKI:0.00
PC:16baa     Total:2      MisBP:0   MisRate:0.00%    MPKI:0.00
PC:20dcc     Total:14514      MisBP:0   MisRate:0.00%    MPKI:0.00
PC:20dce     Total:14514      MisBP:0   MisRate:0.00%    MPKI:0.00
PC:16bb0     Total:2      MisBP:0   MisRate:0.00%    MPKI:0.00
PC:40886     Total:52      MisBP:0   MisRate:0.00%    MPKI:0.00
PC:1d6ae     Total:13047      MisBP:0   MisRate:0.00%    MPKI:0.00
PC:17ff4     Total:2885      MisBP:0   MisRate:0.00%    MPKI:0.00
PC:4087c     Total:55      MisBP:0   MisRate:0.00%    MPKI:0.00
PC:1d6b0     Total:13047      MisBP:0   MisRate:0.00%    MPKI:0.00
PC:1866e     Total:751      MisBP:0   MisRate:0.00%    MPKI:0.00
PC:1d6b2     Total:13047      MisBP:0   MisRate:0.00%    MPKI:0.00
PC:17ff8     Total:2871      MisBP:0   MisRate:0.00%    MPKI:0.00
PC:40880     Total:52      MisBP:0   MisRate:0.00%    MPKI:0.00
PC:1d6b6     Total:13047      MisBP:0   MisRate:0.00%    MPKI:0.00
PC:18676     Total:750      MisBP:0   MisRate:0.00%    MPKI:0.00
PC:1866a     Total:756      MisBP:0   MisRate:0.00%    MPKI:0.00
PC:1d6ba     Total:7453      MisBP:0   MisRate:0.00%    MPKI:0.00
PC:18678     Total:750      MisBP:0   MisRate:0.00%    MPKI:0.00
PC:1867c     Total:750      MisBP:0   MisRate:0.00%    MPKI:0.00
PC:1d6c2     Total:7214      MisBP:0   MisRate:0.00%    MPKI:0.00
PC:18680     Total:743      MisBP:0   MisRate:0.00%    MPKI:0.00
PC:1d6c6     Total:7212      MisBP:0   MisRate:0.00%    MPKI:0.00
PC:18684     Total:743      MisBP:0   MisRate:0.00%    MPKI:0.00
PC:1d6c8     Total:7212      MisBP:0   MisRate:0.00%    MPKI:0.00
PC:1d6cc     Total:7210      MisBP:0   MisRate:0.00%    MPKI:0.00
PC:4086e     Total:54      MisBP:0   MisRate:0.00%    MPKI:0.00
PC:17fda     Total:3019      MisBP:0   MisRate:0.00%    MPKI:0.00
PC:40862     Total:68      MisBP:0   MisRate:0.00%    MPKI:0.00
PC:1d698     Total:13218      MisBP:0   MisRate:0.00%    MPKI:0.00
PC:17fde     Total:2987      MisBP:0   MisRate:0.00%    MPKI:0.00
PC:40866     Total:68      MisBP:0   MisRate:0.00%    MPKI:0.00
PC:1d69c     Total:13224      MisBP:0   MisRate:0.00%    MPKI:0.00
PC:17fe2     Total:2986      MisBP:0   MisRate:0.00%    MPKI:0.00
PC:4086a     Total:54      MisBP:0   MisRate:0.00%    MPKI:0.00
PC:1d6a0     Total:13224      MisBP:0   MisRate:0.00%    MPKI:0.00
PC:17fe6     Total:2983      MisBP:0   MisRate:0.00%    MPKI:0.00
PC:1d274     Total:416      MisBP:0   MisRate:0.00%    MPKI:0.00
PC:1d6a4     Total:13223      MisBP:0   MisRate:0.00%    MPKI:0.00
PC:18662     Total:718      MisBP:0   MisRate:0.00%    MPKI:0.00
PC:17fea     Total:2983      MisBP:0   MisRate:0.00%    MPKI:0.00
PC:1d6a8     Total:13221      MisBP:0   MisRate:0.00%    MPKI:0.00
PC:18666     Total:756      MisBP:0   MisRate:0.00%    MPKI:0.00
PC:1d6aa     Total:13221      MisBP:0   MisRate:0.00%    MPKI:0.00
PC:17ff0     Total:2983      MisBP:0   MisRate:0.00%    MPKI:0.00
PC:40878     Total:55      MisBP:0   MisRate:0.00%    MPKI:0.00
PC:1d6ac     Total:13221      MisBP:0   MisRate:0.00%    MPKI:0.00
PC:216f2     Total:24      MisBP:0   MisRate:0.00%    MPKI:0.00
PC:166b0     Total:143227      MisBP:0   MisRate:0.00%    MPKI:0.00
PC:166b2     Total:142129      MisBP:0   MisRate:0.00%    MPKI:0.00
PC:21884     Total:2      MisBP:0   MisRate:0.00%    MPKI:0.00
PC:17662     Total:20120      MisBP:0   MisRate:0.00%    MPKI:0.00
PC:21888     Total:3      MisBP:0   MisRate:0.00%    MPKI:0.00
PC:17666     Total:15869      MisBP:0   MisRate:0.00%    MPKI:0.00
PC:2188c     Total:3      MisBP:0   MisRate:0.00%    MPKI:0.00
PC:1766a     Total:15869      MisBP:0   MisRate:0.00%    MPKI:0.00
PC:21890     Total:3      MisBP:0   MisRate:0.00%    MPKI:0.00
PC:1766e     Total:15680      MisBP:0   MisRate:0.00%    MPKI:0.00
PC:166ac     Total:143227      MisBP:0   MisRate:0.00%    MPKI:0.00
PC:17670     Total:15674      MisBP:0   MisRate:0.00%    MPKI:0.00
PC:17674     Total:18982      MisBP:0   MisRate:0.00%    MPKI:0.00
PC:21898     Total:3      MisBP:0   MisRate:0.00%    MPKI:0.00
PC:17676     Total:18975      MisBP:0   MisRate:0.00%    MPKI:0.00
PC:216fa     Total:18      MisBP:0   MisRate:0.00%    MPKI:0.00
PC:2189c     Total:3      MisBP:0   MisRate:0.00%    MPKI:0.00
PC:1767a     Total:19729      MisBP:0   MisRate:0.00%    MPKI:0.00
PC:174dc     Total:105225      MisBP:0   MisRate:0.00%    MPKI:0.00
PC:216fe     Total:18      MisBP:0   MisRate:0.00%    MPKI:0.00
PC:1767e     Total:17309      MisBP:0   MisRate:0.00%    MPKI:0.00
PC:1669a     Total:142879      MisBP:0   MisRate:0.00%    MPKI:0.00
PC:1de54     Total:1      MisBP:0   MisRate:0.00%    MPKI:0.00
PC:16664     Total:155773      MisBP:0   MisRate:0.00%    MPKI:0.00
PC:23044     Total:4210      MisBP:0   MisRate:0.00%    MPKI:0.00
PC:18e22     Total:628140      MisBP:0   MisRate:0.00%    MPKI:0.00
PC:16688     Total:142880      MisBP:0   MisRate:0.00%    MPKI:0.00
PC:23068     Total:1824      MisBP:0   MisRate:0.00%    MPKI:0.00
PC:18e46     Total:618587      MisBP:0   MisRate:0.00%    MPKI:0.00
PC:23074     Total:1324      MisBP:0   MisRate:0.00%    MPKI:0.00
PC:18e52     Total:111199      MisBP:0   MisRate:0.00%    MPKI:0.00
PC:16696     Total:142879      MisBP:0   MisRate:0.00%    MPKI:0.00
PC:218a4     Total:5      MisBP:0   MisRate:0.00%    MPKI:0.00
PC:1669c     Total:142689      MisBP:0   MisRate:0.00%    MPKI:0.00
PC:2307c     Total:1324      MisBP:0   MisRate:0.00%    MPKI:0.00
PC:18e5a     Total:99693      MisBP:0   MisRate:0.00%    MPKI:0.00
PC:166a0     Total:142689      MisBP:0   MisRate:0.00%    MPKI:0.00
PC:18e5e     Total:99692      MisBP:0   MisRate:0.00%    MPKI:0.00
PC:166a2     Total:142689      MisBP:0   MisRate:0.00%    MPKI:0.00
PC:166a4     Total:142801      MisBP:0   MisRate:0.00%    MPKI:0.00
PC:166a6     Total:142801      MisBP:0   MisRate:0.00%    MPKI:0.00
PC:166aa     Total:143028      MisBP:0   MisRate:0.00%    MPKI:0.00
PC:176ba     Total:521      MisBP:0   MisRate:0.00%    MPKI:0.00
PC:176ac     Total:524      MisBP:0   MisRate:0.00%    MPKI:0.00
PC:218d0     Total:1      MisBP:0   MisRate:0.00%    MPKI:0.00
PC:176ae     Total:523      MisBP:0   MisRate:0.00%    MPKI:0.00
PC:218d2     Total:1      MisBP:0   MisRate:0.00%    MPKI:0.00
PC:176b0     Total:522      MisBP:0   MisRate:0.00%    MPKI:0.00
PC:218d4     Total:1      MisBP:0   MisRate:0.00%    MPKI:0.00
PC:176b2     Total:522      MisBP:0   MisRate:0.00%    MPKI:0.00
PC:218d8     Total:1      MisBP:0   MisRate:0.00%    MPKI:0.00
PC:176b6     Total:521      MisBP:0   MisRate:0.00%    MPKI:0.00
PC:218dc     Total:1      MisBP:0   MisRate:0.00%    MPKI:0.00
PC:218ce     Total:1      MisBP:0   MisRate:0.00%    MPKI:0.00
PC:218e0     Total:1      MisBP:0   MisRate:0.00%    MPKI:0.00
PC:175e8     Total:118062      MisBP:0   MisRate:0.00%    MPKI:0.00
PC:2166c     Total:12      MisBP:0   MisRate:0.00%    MPKI:0.00
PC:175ea     Total:118046      MisBP:0   MisRate:0.00%    MPKI:0.00
PC:175ee     Total:391490      MisBP:0   MisRate:0.00%    MPKI:0.00
PC:21674     Total:12      MisBP:0   MisRate:0.00%    MPKI:0.00
PC:175fa     Total:3414      MisBP:0   MisRate:0.00%    MPKI:0.00
PC:21840     Total:1      MisBP:0   MisRate:0.00%    MPKI:0.00
PC:1761e     Total:24058      MisBP:0   MisRate:0.00%    MPKI:0.00
PC:1769a     Total:2077      MisBP:0   MisRate:0.00%    MPKI:0.00
PC:17682     Total:16059      MisBP:0   MisRate:0.00%    MPKI:0.00
PC:218a8     Total:4      MisBP:0   MisRate:0.00%    MPKI:0.00
PC:17686     Total:16059      MisBP:0   MisRate:0.00%    MPKI:0.00
PC:218ac     Total:4      MisBP:0   MisRate:0.00%    MPKI:0.00
PC:1768a     Total:16538      MisBP:0   MisRate:0.00%    MPKI:0.00
PC:1768e     Total:16538      MisBP:0   MisRate:0.00%    MPKI:0.00
PC:17692     Total:16741      MisBP:0   MisRate:0.00%    MPKI:0.00
PC:218b6     Total:3      MisBP:0   MisRate:0.00%    MPKI:0.00
PC:218b8     Total:3      MisBP:0   MisRate:0.00%    MPKI:0.00
PC:17696     Total:2077      MisBP:0   MisRate:0.00%    MPKI:0.00
PC:18e12     Total:655563      MisBP:0   MisRate:0.00%    MPKI:0.00
PC:1769e     Total:2077      MisBP:0   MisRate:0.00%    MPKI:0.00
PC:218c2     Total:1      MisBP:0   MisRate:0.00%    MPKI:0.00
PC:176a0     Total:2077      MisBP:0   MisRate:0.00%    MPKI:0.00
PC:218c6     Total:1      MisBP:0   MisRate:0.00%    MPKI:0.00
PC:176a4     Total:545      MisBP:0   MisRate:0.00%    MPKI:0.00
PC:218ca     Total:1      MisBP:0   MisRate:0.00%    MPKI:0.00
PC:176a8     Total:524      MisBP:0   MisRate:0.00%    MPKI:0.00
PC:218cc     Total:1      MisBP:0   MisRate:0.00%    MPKI:0.00
PC:176aa     Total:524      MisBP:0   MisRate:0.00%    MPKI:0.00
PC:50054     Total:1      MisBP:0   MisRate:0.00%    MPKI:0.00
PC:1dc70     Total:1416      MisBP:0   MisRate:0.00%    MPKI:0.00
PC:16536     Total:1978      MisBP:0   MisRate:0.00%    MPKI:0.00
PC:18d00     Total:27052      MisBP:0   MisRate:0.00%    MPKI:0.00
PC:1dd42     Total:12031      MisBP:0   MisRate:0.00%    MPKI:0.00
PC:1dd5a     Total:39139      MisBP:0   MisRate:0.00%    MPKI:0.00
PC:22f98     Total:32608      MisBP:0   MisRate:0.00%    MPKI:0.00
PC:18d76     Total:216797      MisBP:0   MisRate:0.00%    MPKI:0.00
PC:1ddb8     Total:4411      MisBP:0   MisRate:0.00%    MPKI:0.00
PC:18d7e     Total:224855      MisBP:0   MisRate:0.00%    MPKI:0.00
PC:1d5aa     Total:52692      MisBP:0   MisRate:0.00%    MPKI:0.00
PC:13a4e     Total:11      MisBP:0   MisRate:0.00%    MPKI:0.00
PC:18d88     Total:224823      MisBP:0   MisRate:0.00%    MPKI:0.00
PC:1ddca     Total:56      MisBP:0   MisRate:0.00%    MPKI:0.00
PC:5005e     Total:1      MisBP:0   MisRate:0.00%    MPKI:0.00
PC:22fb2     Total:32202      MisBP:0   MisRate:0.00%    MPKI:0.00
PC:18d90     Total:224823      MisBP:0   MisRate:0.00%    MPKI:0.00
PC:1ddd2     Total:56      MisBP:0   MisRate:0.00%    MPKI:0.00
PC:1d5bc     Total:16804      MisBP:0   MisRate:0.00%    MPKI:0.00
PC:50066     Total:1      MisBP:0   MisRate:0.00%    MPKI:0.00
PC:22fbe     Total:31900      MisBP:0   MisRate:0.00%    MPKI:0.00
PC:18d9c     Total:43959      MisBP:0   MisRate:0.00%    MPKI:0.00
PC:2cdce     Total:12      MisBP:0   MisRate:0.00%    MPKI:0.00
PC:18982     Total:56399      MisBP:0   MisRate:0.00%    MPKI:0.00
PC:2cdc6     Total:19      MisBP:0   MisRate:0.00%    MPKI:0.00
PC:16504     Total:175891      MisBP:0   MisRate:0.00%    MPKI:0.00
PC:18cc2     Total:31195      MisBP:0   MisRate:0.00%    MPKI:0.00
PC:1dd04     Total:38268      MisBP:0   MisRate:0.00%    MPKI:0.00
PC:13a20     Total:42567      MisBP:0   MisRate:0.00%    MPKI:0.00
PC:1dc42     Total:1425      MisBP:0   MisRate:0.00%    MPKI:0.00
PC:18cc6     Total:31195      MisBP:0   MisRate:0.00%    MPKI:0.00
PC:1dd08     Total:38268      MisBP:0   MisRate:0.00%    MPKI:0.00
PC:1898a     Total:56399      MisBP:0   MisRate:0.00%    MPKI:0.00
PC:1ddde     Total:56      MisBP:0   MisRate:0.00%    MPKI:0.00
PC:1650e     Total:165482      MisBP:0   MisRate:0.00%    MPKI:0.00
PC:18ccc     Total:31185      MisBP:0   MisRate:0.00%    MPKI:0.00
PC:1dd0e     Total:38268      MisBP:0   MisRate:0.00%    MPKI:0.00
PC:18990     Total:56399      MisBP:0   MisRate:0.00%    MPKI:0.00
PC:2cdd4     Total:12      MisBP:0   MisRate:0.00%    MPKI:0.00
PC:16526     Total:1996      MisBP:0   MisRate:0.00%    MPKI:0.00
PC:1652a     Total:1996      MisBP:0   MisRate:0.00%    MPKI:0.00
PC:1652e     Total:1996      MisBP:0   MisRate:0.00%    MPKI:0.00
PC:18cec     Total:29706      MisBP:0   MisRate:0.00%    MPKI:0.00
PC:18de2     Total:32256      MisBP:0   MisRate:0.00%    MPKI:0.00
PC:1660e     Total:217324      MisBP:0   MisRate:0.00%    MPKI:0.00
PC:22fee     Total:31178      MisBP:0   MisRate:0.00%    MPKI:0.00
PC:18dcc     Total:34349      MisBP:0   MisRate:0.00%    MPKI:0.00
PC:16616     Total:217322      MisBP:0   MisRate:0.00%    MPKI:0.00
PC:18dd4     Total:34349      MisBP:0   MisRate:0.00%    MPKI:0.00
PC:16620     Total:206134      MisBP:0   MisRate:0.00%    MPKI:0.00
PC:18dde     Total:32256      MisBP:0   MisRate:0.00%    MPKI:0.00
PC:1dd5e     Total:4574      MisBP:0   MisRate:0.00%    MPKI:0.00
PC:16624     Total:206133      MisBP:0   MisRate:0.00%    MPKI:0.00
PC:23004     Total:13575      MisBP:0   MisRate:0.00%    MPKI:0.00
PC:18dc6     Total:34349      MisBP:0   MisRate:0.00%    MPKI:0.00
PC:2300e     Total:13566      MisBP:0   MisRate:0.00%    MPKI:0.00
PC:18dec     Total:29753      MisBP:0   MisRate:0.00%    MPKI:0.00
PC:18df8     Total:29753      MisBP:0   MisRate:0.00%    MPKI:0.00
PC:1de3a     Total:7049      MisBP:0   MisRate:0.00%    MPKI:0.00
PC:16640     Total:150045      MisBP:0   MisRate:0.00%    MPKI:0.00
PC:18dfe     Total:797176      MisBP:0   MisRate:0.00%    MPKI:0.00
PC:1de40     Total:6928      MisBP:0   MisRate:0.00%    MPKI:0.00
PC:16654     Total:150045      MisBP:0   MisRate:0.00%    MPKI:0.00
PC:23034     Total:8500      MisBP:0   MisRate:0.00%    MPKI:0.00
PC:22fd2     Total:31894      MisBP:0   MisRate:0.00%    MPKI:0.00
PC:1d5c8     Total:16356      MisBP:0   MisRate:0.00%    MPKI:0.00
PC:50072     Total:16      MisBP:0   MisRate:0.00%    MPKI:0.00
PC:165e2     Total:33993      MisBP:0   MisRate:0.00%    MPKI:0.00
PC:22fc2     Total:31900      MisBP:0   MisRate:0.00%    MPKI:0.00
PC:18da0     Total:43959      MisBP:0   MisRate:0.00%    MPKI:0.00
PC:1dde2     Total:56      MisBP:0   MisRate:0.00%    MPKI:0.00
PC:50076     Total:16      MisBP:0   MisRate:0.00%    MPKI:0.00
PC:18da4     Total:43958      MisBP:0   MisRate:0.00%    MPKI:0.00
PC:5007a     Total:16      MisBP:0   MisRate:0.00%    MPKI:0.00
PC:1dd2c     Total:14579      MisBP:0   MisRate:0.00%    MPKI:0.00
PC:21844     Total:1      MisBP:0   MisRate:0.00%    MPKI:0.00
PC:18db0     Total:41897      MisBP:0   MisRate:0.00%    MPKI:0.00
PC:28014     Total:12      MisBP:0   MisRate:0.00%    MPKI:0.00
PC:1ddf2     Total:1      MisBP:0   MisRate:0.00%    MPKI:0.00
PC:1dd30     Total:14394      MisBP:0   MisRate:0.00%    MPKI:0.00
PC:18db4     Total:41897      MisBP:0   MisRate:0.00%    MPKI:0.00
PC:28018     Total:24      MisBP:0   MisRate:0.00%    MPKI:0.00
PC:1ddf6     Total:1      MisBP:0   MisRate:0.00%    MPKI:0.00
PC:16608     Total:217325      MisBP:0   MisRate:0.00%    MPKI:0.00
PC:22fe8     Total:31180      MisBP:0   MisRate:0.00%    MPKI:0.00
PC:17bfe     Total:4360      MisBP:0   MisRate:0.00%    MPKI:0.00
PC:175de     Total:26580      MisBP:0   MisRate:0.00%    MPKI:0.00
PC:175e2     Total:26580      MisBP:0   MisRate:0.00%    MPKI:0.00
PC:17bf2     Total:5258      MisBP:0   MisRate:0.00%    MPKI:0.00
PC:12bb0     Total:836      MisBP:0   MisRate:0.00%    MPKI:0.00
PC:17bf4     Total:5258      MisBP:0   MisRate:0.00%    MPKI:0.00
PC:12bb2     Total:829      MisBP:0   MisRate:0.00%    MPKI:0.00
PC:17bf6     Total:5258      MisBP:0   MisRate:0.00%    MPKI:0.00
PC:17bfa     Total:3936      MisBP:0   MisRate:0.00%    MPKI:0.00
PC:12bb8     Total:537      MisBP:0   MisRate:0.00%    MPKI:0.00
PC:17bfc     Total:3936      MisBP:0   MisRate:0.00%    MPKI:0.00
PC:17820     Total:25440      MisBP:0   MisRate:0.00%    MPKI:0.00
PC:12bbc     Total:537      MisBP:0   MisRate:0.00%    MPKI:0.00
PC:2105e     Total:15953      MisBP:0   MisRate:0.00%    MPKI:0.00
PC:16e3c     Total:5569      MisBP:0   MisRate:0.00%    MPKI:0.00
PC:20000     Total:10087      MisBP:0   MisRate:0.00%    MPKI:0.00
PC:15de8     Total:385      MisBP:0   MisRate:0.00%    MPKI:0.00
PC:2000a     Total:13313      MisBP:0   MisRate:0.00%    MPKI:0.00
PC:15f86     Total:2      MisBP:0   MisRate:0.00%    MPKI:0.00
PC:15dec     Total:1777      MisBP:0   MisRate:0.00%    MPKI:0.00
PC:2000e     Total:13313      MisBP:0   MisRate:0.00%    MPKI:0.00
PC:201ac     Total:54367      MisBP:0   MisRate:0.00%    MPKI:0.00
PC:177f6     Total:11585      MisBP:0   MisRate:0.00%    MPKI:0.00
PC:1764c     Total:37752      MisBP:0   MisRate:0.00%    MPKI:0.00
PC:2186e     Total:4      MisBP:0   MisRate:0.00%    MPKI:0.00
PC:177ee     Total:10844      MisBP:0   MisRate:0.00%    MPKI:0.00
PC:17650     Total:36097      MisBP:0   MisRate:0.00%    MPKI:0.00
PC:21872     Total:4      MisBP:0   MisRate:0.00%    MPKI:0.00
PC:17652     Total:36097      MisBP:0   MisRate:0.00%    MPKI:0.00
PC:21874     Total:4      MisBP:0   MisRate:0.00%    MPKI:0.00
PC:177f4     Total:11585      MisBP:0   MisRate:0.00%    MPKI:0.00
PC:17656     Total:18494      MisBP:0   MisRate:0.00%    MPKI:0.00
PC:21878     Total:6      MisBP:0   MisRate:0.00%    MPKI:0.00
PC:15f8a     Total:2      MisBP:0   MisRate:0.00%    MPKI:0.00
PC:177fa     Total:11585      MisBP:0   MisRate:0.00%    MPKI:0.00
PC:2187e     Total:6      MisBP:0   MisRate:0.00%    MPKI:0.00
PC:17800     Total:9977      MisBP:0   MisRate:0.00%    MPKI:0.00
PC:17804     Total:9977      MisBP:0   MisRate:0.00%    MPKI:0.00
PC:17808     Total:9977      MisBP:0   MisRate:0.00%    MPKI:0.00
PC:1780e     Total:12499      MisBP:0   MisRate:0.00%    MPKI:0.00
PC:17812     Total:12499      MisBP:0   MisRate:0.00%    MPKI:0.00
PC:17816     Total:12499      MisBP:0   MisRate:0.00%    MPKI:0.00
PC:1781c     Total:24202      MisBP:0   MisRate:0.00%    MPKI:0.00
PC:16794     Total:12017      MisBP:0   MisRate:0.00%    MPKI:0.00
PC:1ffbe     Total:5416      MisBP:0   MisRate:0.00%    MPKI:0.00
PC:1ffc2     Total:5416      MisBP:0   MisRate:0.00%    MPKI:0.00
PC:1ffc6     Total:5416      MisBP:0   MisRate:0.00%    MPKI:0.00
PC:1ffca     Total:5416      MisBP:0   MisRate:0.00%    MPKI:0.00
PC:16780     Total:12017      MisBP:0   MisRate:0.00%    MPKI:0.00
PC:16784     Total:12017      MisBP:0   MisRate:0.00%    MPKI:0.00
PC:16786     Total:12017      MisBP:0   MisRate:0.00%    MPKI:0.00
PC:1678a     Total:12017      MisBP:0   MisRate:0.00%    MPKI:0.00
PC:1678c     Total:12017      MisBP:0   MisRate:0.00%    MPKI:0.00
PC:16790     Total:12017      MisBP:0   MisRate:0.00%    MPKI:0.00
PC:15f36     Total:139      MisBP:0   MisRate:0.00%    MPKI:0.00
PC:16796     Total:12017      MisBP:0   MisRate:0.00%    MPKI:0.00
PC:1679a     Total:11635      MisBP:0   MisRate:0.00%    MPKI:0.00
PC:1679e     Total:11635      MisBP:0   MisRate:0.00%    MPKI:0.00
PC:167a2     Total:11635      MisBP:0   MisRate:0.00%    MPKI:0.00
PC:167a6     Total:11635      MisBP:0   MisRate:0.00%    MPKI:0.00
PC:167aa     Total:11635      MisBP:0   MisRate:0.00%    MPKI:0.00
PC:167ac     Total:11635      MisBP:0   MisRate:0.00%    MPKI:0.00
PC:167b0     Total:11635      MisBP:0   MisRate:0.00%    MPKI:0.00
PC:1d270     Total:417      MisBP:0   MisRate:0.00%    MPKI:0.00
PC:201c2     Total:54203      MisBP:0   MisRate:0.00%    MPKI:0.00
PC:15df0     Total:873      MisBP:0   MisRate:0.00%    MPKI:0.00
PC:20012     Total:13313      MisBP:0   MisRate:0.00%    MPKI:0.00
PC:15f8e     Total:2      MisBP:0   MisRate:0.00%    MPKI:0.00
PC:20016     Total:13312      MisBP:0   MisRate:0.00%    MPKI:0.00
PC:2001a     Total:13309      MisBP:0   MisRate:0.00%    MPKI:0.00
PC:15dfc     Total:3885      MisBP:0   MisRate:0.00%    MPKI:0.00
PC:2001e     Total:13309      MisBP:0   MisRate:0.00%    MPKI:0.00
PC:15f9a     Total:4      MisBP:0   MisRate:0.00%    MPKI:0.00
PC:20022     Total:13309      MisBP:0   MisRate:0.00%    MPKI:0.00
PC:15f9e     Total:4      MisBP:0   MisRate:0.00%    MPKI:0.00
PC:177ea     Total:10844      MisBP:0   MisRate:0.00%    MPKI:0.00
PC:15fa0     Total:4      MisBP:0   MisRate:0.00%    MPKI:0.00
PC:20028     Total:2608      MisBP:0   MisRate:0.00%    MPKI:0.00
PC:201c6     Total:54203      MisBP:0   MisRate:0.00%    MPKI:0.00
PC:15fa4     Total:925      MisBP:0   MisRate:0.00%    MPKI:0.00
PC:15f2c     Total:47      MisBP:0   MisRate:0.00%    MPKI:0.00
PC:20152     Total:81227      MisBP:0   MisRate:0.00%    MPKI:0.00
PC:15f30     Total:47      MisBP:0   MisRate:0.00%    MPKI:0.00
PC:20154     Total:81226      MisBP:0   MisRate:0.00%    MPKI:0.00
PC:20158     Total:80508      MisBP:0   MisRate:0.00%    MPKI:0.00
PC:17b7c     Total:60935      MisBP:0   MisRate:0.00%    MPKI:0.00
PC:1782a     Total:86375      MisBP:0   MisRate:0.00%    MPKI:0.00
PC:17830     Total:88301      MisBP:0   MisRate:0.00%    MPKI:0.00
PC:17834     Total:88301      MisBP:0   MisRate:0.00%    MPKI:0.00
PC:17838     Total:88301      MisBP:0   MisRate:0.00%    MPKI:0.00
PC:1783a     Total:88300      MisBP:0   MisRate:0.00%    MPKI:0.00
PC:1783c     Total:87676      MisBP:0   MisRate:0.00%    MPKI:0.00
PC:17b6a     Total:62722      MisBP:0   MisRate:0.00%    MPKI:0.00
PC:17b6e     Total:62721      MisBP:0   MisRate:0.00%    MPKI:0.00
PC:17b72     Total:62716      MisBP:0   MisRate:0.00%    MPKI:0.00
PC:17b76     Total:62716      MisBP:0   MisRate:0.00%    MPKI:0.00
PC:17826     Total:86375      MisBP:0   MisRate:0.00%    MPKI:0.00
PC:17b80     Total:59005      MisBP:0   MisRate:0.00%    MPKI:0.00
PC:17b86     Total:26972      MisBP:0   MisRate:0.00%    MPKI:0.00
PC:17b88     Total:26972      MisBP:0   MisRate:0.00%    MPKI:0.00
PC:12b46     Total:1630      MisBP:0   MisRate:0.00%    MPKI:0.00
PC:17b8a     Total:26972      MisBP:0   MisRate:0.00%    MPKI:0.00
PC:17b8c     Total:26970      MisBP:0   MisRate:0.00%    MPKI:0.00
PC:17b90     Total:12969      MisBP:0   MisRate:0.00%    MPKI:0.00
PC:17b92     Total:12969      MisBP:0   MisRate:0.00%    MPKI:0.00
PC:17b94     Total:12969      MisBP:0   MisRate:0.00%    MPKI:0.00
PC:17b9a     Total:10933      MisBP:0   MisRate:0.00%    MPKI:0.00
PC:17a84     Total:10332      MisBP:0   MisRate:0.00%    MPKI:0.00
PC:17622     Total:24058      MisBP:0   MisRate:0.00%    MPKI:0.00
PC:21846     Total:1      MisBP:0   MisRate:0.00%    MPKI:0.00
PC:1762a     Total:25261      MisBP:0   MisRate:0.00%    MPKI:0.00
PC:216ae     Total:1      MisBP:0   MisRate:0.00%    MPKI:0.00
PC:1762e     Total:25261      MisBP:0   MisRate:0.00%    MPKI:0.00
PC:216b2     Total:1      MisBP:0   MisRate:0.00%    MPKI:0.00
PC:17636     Total:28858      MisBP:0   MisRate:0.00%    MPKI:0.00
PC:216d0     Total:34      MisBP:0   MisRate:0.00%    MPKI:0.00
PC:2bebc     Total:59      MisBP:0   MisRate:0.00%    MPKI:0.00
PC:17a78     Total:10458      MisBP:0   MisRate:0.00%    MPKI:0.00
PC:17b9e     Total:10933      MisBP:0   MisRate:0.00%    MPKI:0.00
PC:17a88     Total:8655      MisBP:0   MisRate:0.00%    MPKI:0.00
PC:17a6a     Total:23561      MisBP:0   MisRate:0.00%    MPKI:0.00
PC:17a42     Total:25628      MisBP:0   MisRate:0.00%    MPKI:0.00
PC:17a46     Total:24555      MisBP:0   MisRate:0.00%    MPKI:0.00
PC:17a50     Total:8      MisBP:0   MisRate:0.00%    MPKI:0.00
PC:21688     Total:11      MisBP:0   MisRate:0.00%    MPKI:0.00
PC:2168c     Total:11      MisBP:0   MisRate:0.00%    MPKI:0.00
PC:2169a     Total:11      MisBP:0   MisRate:0.00%    MPKI:0.00
PC:17822     Total:86375      MisBP:0   MisRate:0.00%    MPKI:0.00
PC:177d4     Total:11679      MisBP:0   MisRate:0.00%    MPKI:0.00
PC:1787a     Total:99      MisBP:0   MisRate:0.00%    MPKI:0.00
PC:1787c     Total:99      MisBP:0   MisRate:0.00%    MPKI:0.00
PC:177be     Total:14813      MisBP:0   MisRate:0.00%    MPKI:0.00
PC:177c2     Total:14813      MisBP:0   MisRate:0.00%    MPKI:0.00
PC:177c6     Total:14813      MisBP:0   MisRate:0.00%    MPKI:0.00
PC:17628     Total:25261      MisBP:0   MisRate:0.00%    MPKI:0.00
PC:2184a     Total:4      MisBP:0   MisRate:0.00%    MPKI:0.00
PC:177cc     Total:11680      MisBP:0   MisRate:0.00%    MPKI:0.00
PC:177d0     Total:11679      MisBP:0   MisRate:0.00%    MPKI:0.00
PC:21854     Total:4      MisBP:0   MisRate:0.00%    MPKI:0.00
PC:17878     Total:99      MisBP:0   MisRate:0.00%    MPKI:0.00
PC:2185a     Total:10      MisBP:0   MisRate:0.00%    MPKI:0.00
PC:177da     Total:11369      MisBP:0   MisRate:0.00%    MPKI:0.00
PC:177de     Total:11369      MisBP:0   MisRate:0.00%    MPKI:0.00
PC:17640     Total:26058      MisBP:0   MisRate:0.00%    MPKI:0.00
PC:21862     Total:4      MisBP:0   MisRate:0.00%    MPKI:0.00
PC:177e2     Total:11369      MisBP:0   MisRate:0.00%    MPKI:0.00
PC:17644     Total:26058      MisBP:0   MisRate:0.00%    MPKI:0.00
PC:21866     Total:4      MisBP:0   MisRate:0.00%    MPKI:0.00
PC:177e8     Total:10844      MisBP:0   MisRate:0.00%    MPKI:0.00
PC:17852     Total:85312      MisBP:0   MisRate:0.00%    MPKI:0.00
PC:17ba2     Total:10933      MisBP:0   MisRate:0.00%    MPKI:0.00
PC:12b60     Total:951      MisBP:0   MisRate:0.00%    MPKI:0.00
PC:17ba4     Total:10933      MisBP:0   MisRate:0.00%    MPKI:0.00
PC:17bac     Total:8829      MisBP:0   MisRate:0.00%    MPKI:0.00
PC:1783e     Total:83788      MisBP:0   MisRate:0.00%    MPKI:0.00
PC:17846     Total:85312      MisBP:0   MisRate:0.00%    MPKI:0.00
PC:17848     Total:85312      MisBP:0   MisRate:0.00%    MPKI:0.00
PC:1784c     Total:85312      MisBP:0   MisRate:0.00%    MPKI:0.00
PC:1784e     Total:85312      MisBP:0   MisRate:0.00%    MPKI:0.00
PC:17850     Total:85312      MisBP:0   MisRate:0.00%    MPKI:0.00
PC:1dfd8     Total:5223      MisBP:0   MisRate:0.00%    MPKI:0.00
PC:1785a     Total:82791      MisBP:0   MisRate:0.00%    MPKI:0.00
PC:1785e     Total:82733      MisBP:0   MisRate:0.00%    MPKI:0.00
PC:17862     Total:82733      MisBP:0   MisRate:0.00%    MPKI:0.00
PC:17864     Total:82733      MisBP:0   MisRate:0.00%    MPKI:0.00
PC:17866     Total:82733      MisBP:0   MisRate:0.00%    MPKI:0.00
PC:1786a     Total:85409      MisBP:0   MisRate:0.00%    MPKI:0.00
PC:17870     Total:1839      MisBP:0   MisRate:0.00%    MPKI:0.00
PC:17872     Total:1839      MisBP:0   MisRate:0.00%    MPKI:0.00
PC:17874     Total:1839      MisBP:0   MisRate:0.00%    MPKI:0.00
PC:15120     Total:1      MisBP:0   MisRate:0.00%    MPKI:0.00
PC:14efa     Total:3251      MisBP:0   MisRate:0.00%    MPKI:0.00
PC:15100     Total:4936      MisBP:0   MisRate:0.00%    MPKI:0.00
PC:15104     Total:4936      MisBP:0   MisRate:0.00%    MPKI:0.00
PC:15108     Total:4936      MisBP:0   MisRate:0.00%    MPKI:0.00
PC:1510a     Total:1      MisBP:0   MisRate:0.00%    MPKI:0.00
PC:1510e     Total:1      MisBP:0   MisRate:0.00%    MPKI:0.00
PC:15112     Total:1      MisBP:0   MisRate:0.00%    MPKI:0.00
PC:15116     Total:1      MisBP:0   MisRate:0.00%    MPKI:0.00
PC:1511a     Total:1      MisBP:0   MisRate:0.00%    MPKI:0.00
PC:1511c     Total:1      MisBP:0   MisRate:0.00%    MPKI:0.00
PC:14ef4     Total:3446      MisBP:0   MisRate:0.00%    MPKI:0.00
PC:15124     Total:1      MisBP:0   MisRate:0.00%    MPKI:0.00
PC:15126     Total:1      MisBP:0   MisRate:0.00%    MPKI:0.00
PC:1512a     Total:1      MisBP:0   MisRate:0.00%    MPKI:0.00
PC:1512e     Total:1      MisBP:0   MisRate:0.00%    MPKI:0.00
PC:15132     Total:1      MisBP:0   MisRate:0.00%    MPKI:0.00
PC:15136     Total:1      MisBP:0   MisRate:0.00%    MPKI:0.00
PC:1d540     Total:3055      MisBP:0   MisRate:0.00%    MPKI:0.00
PC:184fe     Total:2210      MisBP:0   MisRate:0.00%    MPKI:0.00
PC:1d542     Total:3055      MisBP:0   MisRate:0.00%    MPKI:0.00
PC:17e88     Total:2115      MisBP:0   MisRate:0.00%    MPKI:0.00
PC:14ecc     Total:3659      MisBP:0   MisRate:0.00%    MPKI:0.00
PC:17734     Total:338      MisBP:0   MisRate:0.00%    MPKI:0.00
PC:21958     Total:1      MisBP:0   MisRate:0.00%    MPKI:0.00
PC:17736     Total:338      MisBP:0   MisRate:0.00%    MPKI:0.00
PC:2195c     Total:1      MisBP:0   MisRate:0.00%    MPKI:0.00
PC:1773a     Total:338      MisBP:0   MisRate:0.00%    MPKI:0.00
PC:21960     Total:1      MisBP:0   MisRate:0.00%    MPKI:0.00
PC:1773e     Total:338      MisBP:0   MisRate:0.00%    MPKI:0.00
PC:14ebe     Total:11118      MisBP:0   MisRate:0.00%    MPKI:0.00
PC:14ec2     Total:11118      MisBP:0   MisRate:0.00%    MPKI:0.00
PC:14ec8     Total:3659      MisBP:0   MisRate:0.00%    MPKI:0.00
PC:40710     Total:2      MisBP:0   MisRate:0.00%    MPKI:0.00
PC:14ed0     Total:3659      MisBP:0   MisRate:0.00%    MPKI:0.00
PC:14ed2     Total:3659      MisBP:0   MisRate:0.00%    MPKI:0.00
PC:14ed6     Total:3658      MisBP:0   MisRate:0.00%    MPKI:0.00
PC:14eda     Total:3618      MisBP:0   MisRate:0.00%    MPKI:0.00
PC:14ede     Total:3618      MisBP:0   MisRate:0.00%    MPKI:0.00
PC:14ee4     Total:3446      MisBP:0   MisRate:0.00%    MPKI:0.00
PC:14ee8     Total:3446      MisBP:0   MisRate:0.00%    MPKI:0.00
PC:14eec     Total:3446      MisBP:0   MisRate:0.00%    MPKI:0.00
PC:14ef0     Total:3446      MisBP:0   MisRate:0.00%    MPKI:0.00
PC:14f92     Total:22483      MisBP:0   MisRate:0.00%    MPKI:0.00
PC:14f22     Total:2063      MisBP:0   MisRate:0.00%    MPKI:0.00
PC:14f26     Total:2063      MisBP:0   MisRate:0.00%    MPKI:0.00
PC:14f2a     Total:2063      MisBP:0   MisRate:0.00%    MPKI:0.00
PC:14f2e     Total:2063      MisBP:0   MisRate:0.00%    MPKI:0.00
PC:14f30     Total:2063      MisBP:0   MisRate:0.00%    MPKI:0.00
PC:14f32     Total:6665      MisBP:0   MisRate:0.00%    MPKI:0.00
PC:14f36     Total:6665      MisBP:0   MisRate:0.00%    MPKI:0.00
PC:14f3a     Total:6665      MisBP:0   MisRate:0.00%    MPKI:0.00
PC:14f8a     Total:22483      MisBP:0   MisRate:0.00%    MPKI:0.00
PC:14f8e     Total:22483      MisBP:0   MisRate:0.00%    MPKI:0.00
PC:14f1e     Total:2512      MisBP:0   MisRate:0.00%    MPKI:0.00
PC:14f94     Total:24142      MisBP:0   MisRate:0.00%    MPKI:0.00
PC:14f96     Total:24142      MisBP:0   MisRate:0.00%    MPKI:0.00
PC:14f9a     Total:34890      MisBP:0   MisRate:0.00%    MPKI:0.00
PC:14f9e     Total:34890      MisBP:0   MisRate:0.00%    MPKI:0.00
PC:16e46     Total:2579      MisBP:0   MisRate:0.00%    MPKI:0.00
PC:21068     Total:13128      MisBP:0   MisRate:0.00%    MPKI:0.00
PC:2106c     Total:13093      MisBP:0   MisRate:0.00%    MPKI:0.00
PC:16e4c     Total:2160      MisBP:0   MisRate:0.00%    MPKI:0.00
PC:2106e     Total:13087      MisBP:0   MisRate:0.00%    MPKI:0.00
PC:1d552     Total:3052      MisBP:0   MisRate:0.00%    MPKI:0.00
PC:1d544     Total:3053      MisBP:0   MisRate:0.00%    MPKI:0.00
PC:18502     Total:2207      MisBP:0   MisRate:0.00%    MPKI:0.00
PC:17e8a     Total:2115      MisBP:0   MisRate:0.00%    MPKI:0.00
PC:40712     Total:1      MisBP:0   MisRate:0.00%    MPKI:0.00
PC:1d546     Total:3053      MisBP:0   MisRate:0.00%    MPKI:0.00
PC:1d54a     Total:3053      MisBP:0   MisRate:0.00%    MPKI:0.00
PC:18508     Total:2202      MisBP:0   MisRate:0.00%    MPKI:0.00
PC:1d54e     Total:3052      MisBP:0   MisRate:0.00%    MPKI:0.00
PC:1850c     Total:2197      MisBP:0   MisRate:0.00%    MPKI:0.00
PC:4071c     Total:1      MisBP:0   MisRate:0.00%    MPKI:0.00
PC:217b6     Total:39      MisBP:0   MisRate:0.00%    MPKI:0.00
PC:18510     Total:2197      MisBP:0   MisRate:0.00%    MPKI:0.00
PC:14efe     Total:3228      MisBP:0   MisRate:0.00%    MPKI:0.00
PC:14f02     Total:3228      MisBP:0   MisRate:0.00%    MPKI:0.00
PC:14f06     Total:3228      MisBP:0   MisRate:0.00%    MPKI:0.00
PC:14f0a     Total:3228      MisBP:0   MisRate:0.00%    MPKI:0.00
PC:14f0e     Total:3207      MisBP:0   MisRate:0.00%    MPKI:0.00
PC:14f12     Total:3207      MisBP:0   MisRate:0.00%    MPKI:0.00
PC:14f16     Total:3207      MisBP:0   MisRate:0.00%    MPKI:0.00
PC:14f1a     Total:2512      MisBP:0   MisRate:0.00%    MPKI:0.00
PC:41ca8     Total:29      MisBP:0   MisRate:0.00%    MPKI:0.00
PC:19414     Total:19491      MisBP:0   MisRate:0.00%    MPKI:0.00
PC:41c9e     Total:30      MisBP:0   MisRate:0.00%    MPKI:0.00
PC:19416     Total:19490      MisBP:0   MisRate:0.00%    MPKI:0.00
PC:41ca0     Total:29      MisBP:0   MisRate:0.00%    MPKI:0.00
PC:19418     Total:19458      MisBP:0   MisRate:0.00%    MPKI:0.00
PC:1941a     Total:19458      MisBP:0   MisRate:0.00%    MPKI:0.00
PC:41ca4     Total:29      MisBP:0   MisRate:0.00%    MPKI:0.00
PC:1941c     Total:19452      MisBP:0   MisRate:0.00%    MPKI:0.00
PC:41ca6     Total:29      MisBP:0   MisRate:0.00%    MPKI:0.00
PC:1941e     Total:19452      MisBP:0   MisRate:0.00%    MPKI:0.00
PC:41c9c     Total:30      MisBP:0   MisRate:0.00%    MPKI:0.00
PC:19420     Total:19452      MisBP:0   MisRate:0.00%    MPKI:0.00
PC:41caa     Total:29      MisBP:0   MisRate:0.00%    MPKI:0.00
PC:19422     Total:19452      MisBP:0   MisRate:0.00%    MPKI:0.00
PC:19424     Total:18495      MisBP:0   MisRate:0.00%    MPKI:0.00
PC:41cae     Total:29      MisBP:0   MisRate:0.00%    MPKI:0.00
PC:19426     Total:18489      MisBP:0   MisRate:0.00%    MPKI:0.00
PC:41cb0     Total:29      MisBP:0   MisRate:0.00%    MPKI:0.00
PC:19428     Total:18488      MisBP:0   MisRate:0.00%    MPKI:0.00
PC:1942a     Total:18488      MisBP:0   MisRate:0.00%    MPKI:0.00
PC:41cb4     Total:29      MisBP:0   MisRate:0.00%    MPKI:0.00
PC:41c90     Total:30      MisBP:0   MisRate:0.00%    MPKI:0.00
PC:1e330     Total:12768      MisBP:0   MisRate:0.00%    MPKI:0.00
PC:1e33e     Total:12707      MisBP:0   MisRate:0.00%    MPKI:0.00
PC:1cb60     Total:2      MisBP:0   MisRate:0.00%    MPKI:0.00
PC:1cb64     Total:2      MisBP:0   MisRate:0.00%    MPKI:0.00
PC:16e4e     Total:2160      MisBP:0   MisRate:0.00%    MPKI:0.00
PC:16e64     Total:2119      MisBP:0   MisRate:0.00%    MPKI:0.00
PC:41c88     Total:2      MisBP:0   MisRate:0.00%    MPKI:0.00
PC:19400     Total:19821      MisBP:0   MisRate:0.00%    MPKI:0.00
PC:19402     Total:19821      MisBP:0   MisRate:0.00%    MPKI:0.00
PC:19406     Total:19884      MisBP:0   MisRate:0.00%    MPKI:0.00
PC:1942e     Total:2871      MisBP:0   MisRate:0.00%    MPKI:0.00
PC:19408     Total:19884      MisBP:0   MisRate:0.00%    MPKI:0.00
PC:41c92     Total:30      MisBP:0   MisRate:0.00%    MPKI:0.00
PC:1940a     Total:20026      MisBP:0   MisRate:0.00%    MPKI:0.00
PC:41c94     Total:30      MisBP:0   MisRate:0.00%    MPKI:0.00
PC:1940c     Total:20026      MisBP:0   MisRate:0.00%    MPKI:0.00
PC:41c96     Total:30      MisBP:0   MisRate:0.00%    MPKI:0.00
PC:1940e     Total:20026      MisBP:0   MisRate:0.00%    MPKI:0.00
PC:41c98     Total:30      MisBP:0   MisRate:0.00%    MPKI:0.00
PC:19410     Total:20026      MisBP:0   MisRate:0.00%    MPKI:0.00
PC:2194a     Total:1      MisBP:0   MisRate:0.00%    MPKI:0.00
PC:2193e     Total:5      MisBP:0   MisRate:0.00%    MPKI:0.00
PC:1771c     Total:346      MisBP:0   MisRate:0.00%    MPKI:0.00
PC:217a0     Total:40      MisBP:0   MisRate:0.00%    MPKI:0.00
PC:21940     Total:1      MisBP:0   MisRate:0.00%    MPKI:0.00
PC:1771e     Total:346      MisBP:0   MisRate:0.00%    MPKI:0.00
PC:21942     Total:1      MisBP:0   MisRate:0.00%    MPKI:0.00
PC:17720     Total:346      MisBP:0   MisRate:0.00%    MPKI:0.00
PC:217a4     Total:40      MisBP:0   MisRate:0.00%    MPKI:0.00
PC:17722     Total:346      MisBP:0   MisRate:0.00%    MPKI:0.00
PC:17726     Total:346      MisBP:0   MisRate:0.00%    MPKI:0.00
PC:1771a     Total:346      MisBP:0   MisRate:0.00%    MPKI:0.00
PC:17728     Total:346      MisBP:0   MisRate:0.00%    MPKI:0.00
PC:2194e     Total:1      MisBP:0   MisRate:0.00%    MPKI:0.00
PC:1772c     Total:346      MisBP:0   MisRate:0.00%    MPKI:0.00
PC:21950     Total:1      MisBP:0   MisRate:0.00%    MPKI:0.00
PC:1772e     Total:338      MisBP:0   MisRate:0.00%    MPKI:0.00
PC:21952     Total:1      MisBP:0   MisRate:0.00%    MPKI:0.00
PC:17730     Total:338      MisBP:0   MisRate:0.00%    MPKI:0.00
PC:21954     Total:1      MisBP:0   MisRate:0.00%    MPKI:0.00
PC:17732     Total:338      MisBP:0   MisRate:0.00%    MPKI:0.00
PC:1770c     Total:355      MisBP:0   MisRate:0.00%    MPKI:0.00
PC:21922     Total:1      MisBP:0   MisRate:0.00%    MPKI:0.00
PC:17700     Total:355      MisBP:0   MisRate:0.00%    MPKI:0.00
PC:21784     Total:31      MisBP:0   MisRate:0.00%    MPKI:0.00
PC:21926     Total:1      MisBP:0   MisRate:0.00%    MPKI:0.00
PC:17704     Total:355      MisBP:0   MisRate:0.00%    MPKI:0.00
PC:21788     Total:31      MisBP:0   MisRate:0.00%    MPKI:0.00
PC:2192a     Total:1      MisBP:0   MisRate:0.00%    MPKI:0.00
PC:17708     Total:355      MisBP:0   MisRate:0.00%    MPKI:0.00
PC:2178c     Total:31      MisBP:0   MisRate:0.00%    MPKI:0.00
PC:2192e     Total:1      MisBP:0   MisRate:0.00%    MPKI:0.00
PC:16fea     Total:121      MisBP:0   MisRate:0.00%    MPKI:0.00
PC:21930     Total:1      MisBP:0   MisRate:0.00%    MPKI:0.00
PC:1770e     Total:355      MisBP:0   MisRate:0.00%    MPKI:0.00
PC:21792     Total:776      MisBP:0   MisRate:0.00%    MPKI:0.00
PC:21934     Total:1      MisBP:0   MisRate:0.00%    MPKI:0.00
PC:17712     Total:355      MisBP:0   MisRate:0.00%    MPKI:0.00
PC:21796     Total:776      MisBP:0   MisRate:0.00%    MPKI:0.00
PC:17714     Total:355      MisBP:0   MisRate:0.00%    MPKI:0.00
PC:2193a     Total:1      MisBP:0   MisRate:0.00%    MPKI:0.00
PC:17718     Total:355      MisBP:0   MisRate:0.00%    MPKI:0.00
PC:16aea     Total:193      MisBP:0   MisRate:0.00%    MPKI:0.00
PC:16ac4     Total:9489      MisBP:0   MisRate:0.00%    MPKI:0.00
PC:16ac8     Total:9489      MisBP:0   MisRate:0.00%    MPKI:0.00
PC:16acc     Total:9489      MisBP:0   MisRate:0.00%    MPKI:0.00
PC:16ad0     Total:9489      MisBP:0   MisRate:0.00%    MPKI:0.00
PC:16ad4     Total:9489      MisBP:0   MisRate:0.00%    MPKI:0.00
PC:16ad8     Total:9565      MisBP:0   MisRate:0.00%    MPKI:0.00
PC:16ada     Total:9565      MisBP:0   MisRate:0.00%    MPKI:0.00
PC:16ae0     Total:193      MisBP:0   MisRate:0.00%    MPKI:0.00
PC:16ae2     Total:193      MisBP:0   MisRate:0.00%    MPKI:0.00
PC:16ae6     Total:193      MisBP:0   MisRate:0.00%    MPKI:0.00
PC:16ac0     Total:9489      MisBP:0   MisRate:0.00%    MPKI:0.00
PC:16aee     Total:193      MisBP:0   MisRate:0.00%    MPKI:0.00
PC:16af2     Total:193      MisBP:0   MisRate:0.00%    MPKI:0.00
PC:16af6     Total:193      MisBP:0   MisRate:0.00%    MPKI:0.00
PC:16af8     Total:193      MisBP:0   MisRate:0.00%    MPKI:0.00
PC:16afc     Total:193      MisBP:0   MisRate:0.00%    MPKI:0.00
PC:12326     Total:193020      MisBP:0   MisRate:0.00%    MPKI:0.00
PC:1232a     Total:193017      MisBP:0   MisRate:0.00%    MPKI:0.00
PC:12330     Total:186082      MisBP:0   MisRate:0.00%    MPKI:0.00
PC:12346     Total:77768      MisBP:0   MisRate:0.00%    MPKI:0.00
PC:12360     Total:52449      MisBP:0   MisRate:0.00%    MPKI:0.00
PC:16a9c     Total:10780      MisBP:0   MisRate:0.00%    MPKI:0.00
PC:16a80     Total:10218      MisBP:0   MisRate:0.00%    MPKI:0.00
PC:16a84     Total:10218      MisBP:0   MisRate:0.00%    MPKI:0.00
PC:16a86     Total:10218      MisBP:0   MisRate:0.00%    MPKI:0.00
PC:16a88     Total:10218      MisBP:0   MisRate:0.00%    MPKI:0.00
PC:16a8c     Total:10226      MisBP:0   MisRate:0.00%    MPKI:0.00
PC:16a8e     Total:10226      MisBP:0   MisRate:0.00%    MPKI:0.00
PC:16a90     Total:10591      MisBP:0   MisRate:0.00%    MPKI:0.00
PC:16a94     Total:10591      MisBP:0   MisRate:0.00%    MPKI:0.00
PC:16a98     Total:10525      MisBP:0   MisRate:0.00%    MPKI:0.00
PC:16a9a     Total:10780      MisBP:0   MisRate:0.00%    MPKI:0.00
PC:1231c     Total:182945      MisBP:0   MisRate:0.00%    MPKI:0.00
PC:16aa0     Total:10780      MisBP:0   MisRate:0.00%    MPKI:0.00
PC:16aa4     Total:11096      MisBP:0   MisRate:0.00%    MPKI:0.00
PC:16aa6     Total:11096      MisBP:0   MisRate:0.00%    MPKI:0.00
PC:16aaa     Total:11096      MisBP:0   MisRate:0.00%    MPKI:0.00
PC:16aae     Total:11096      MisBP:0   MisRate:0.00%    MPKI:0.00
PC:16ab0     Total:10609      MisBP:0   MisRate:0.00%    MPKI:0.00
PC:16ab4     Total:10609      MisBP:0   MisRate:0.00%    MPKI:0.00
PC:16ab8     Total:10609      MisBP:0   MisRate:0.00%    MPKI:0.00
PC:16abc     Total:10609      MisBP:0   MisRate:0.00%    MPKI:0.00
PC:1238e     Total:77700      MisBP:0   MisRate:0.00%    MPKI:0.00
PC:17faa     Total:6368      MisBP:0   MisRate:0.00%    MPKI:0.00
PC:40832     Total:69      MisBP:0   MisRate:0.00%    MPKI:0.00
PC:1236c     Total:28459      MisBP:0   MisRate:0.00%    MPKI:0.00
PC:309d8     Total:12      MisBP:0   MisRate:0.00%    MPKI:0.00
PC:12372     Total:328478      MisBP:0   MisRate:0.00%    MPKI:0.00
PC:12376     Total:164238      MisBP:0   MisRate:0.00%    MPKI:0.00
PC:309e6     Total:4      MisBP:0   MisRate:0.00%    MPKI:0.00
PC:12380     Total:157741      MisBP:0   MisRate:0.00%    MPKI:0.00
PC:12384     Total:21130      MisBP:0   MisRate:0.00%    MPKI:0.00
PC:309f4     Total:4      MisBP:0   MisRate:0.00%    MPKI:0.00
PC:18622     Total:1945      MisBP:0   MisRate:0.00%    MPKI:0.00
PC:309fc     Total:4      MisBP:0   MisRate:0.00%    MPKI:0.00
PC:12396     Total:77682      MisBP:0   MisRate:0.00%    MPKI:0.00
PC:1239a     Total:70508      MisBP:0   MisRate:0.00%    MPKI:0.00
PC:1239e     Total:68403      MisBP:0   MisRate:0.00%    MPKI:0.00
PC:123a2     Total:59795      MisBP:0   MisRate:0.00%    MPKI:0.00
PC:123a8     Total:51532      MisBP:0   MisRate:0.00%    MPKI:0.00
PC:123ae     Total:176106      MisBP:0   MisRate:0.00%    MPKI:0.00
PC:123b2     Total:216202      MisBP:0   MisRate:0.00%    MPKI:0.00
PC:123b6     Total:216202      MisBP:0   MisRate:0.00%    MPKI:0.00
PC:185fc     Total:2185      MisBP:0   MisRate:0.00%    MPKI:0.00
PC:185a8     Total:11014      MisBP:0   MisRate:0.00%    MPKI:0.00
PC:185ac     Total:11014      MisBP:0   MisRate:0.00%    MPKI:0.00
PC:185ca     Total:10750      MisBP:0   MisRate:0.00%    MPKI:0.00
PC:185ce     Total:10750      MisBP:0   MisRate:0.00%    MPKI:0.00
PC:185d8     Total:10985      MisBP:0   MisRate:0.00%    MPKI:0.00
PC:407e8     Total:13      MisBP:0   MisRate:0.00%    MPKI:0.00
PC:185ea     Total:10014      MisBP:0   MisRate:0.00%    MPKI:0.00
PC:185ee     Total:10014      MisBP:0   MisRate:0.00%    MPKI:0.00
PC:17f80     Total:6524      MisBP:0   MisRate:0.00%    MPKI:0.00
PC:40808     Total:13      MisBP:0   MisRate:0.00%    MPKI:0.00
PC:16a7c     Total:12462      MisBP:0   MisRate:0.00%    MPKI:0.00
PC:4080c     Total:13      MisBP:0   MisRate:0.00%    MPKI:0.00
PC:18600     Total:1986      MisBP:0   MisRate:0.00%    MPKI:0.00
PC:40810     Total:13      MisBP:0   MisRate:0.00%    MPKI:0.00
PC:18604     Total:1986      MisBP:0   MisRate:0.00%    MPKI:0.00
PC:40814     Total:13      MisBP:0   MisRate:0.00%    MPKI:0.00
PC:1860c     Total:1986      MisBP:0   MisRate:0.00%    MPKI:0.00
PC:1861e     Total:1945      MisBP:0   MisRate:0.00%    MPKI:0.00
PC:17fa6     Total:6368      MisBP:0   MisRate:0.00%    MPKI:0.00
PC:4082e     Total:13      MisBP:0   MisRate:0.00%    MPKI:0.00
PC:2109e     Total:12074      MisBP:0   MisRate:0.00%    MPKI:0.00
PC:17004     Total:71      MisBP:0   MisRate:0.00%    MPKI:0.00
PC:17008     Total:90      MisBP:0   MisRate:0.00%    MPKI:0.00
PC:21092     Total:12320      MisBP:0   MisRate:0.00%    MPKI:0.00
PC:16e74     Total:12      MisBP:0   MisRate:0.00%    MPKI:0.00
PC:21096     Total:12308      MisBP:0   MisRate:0.00%    MPKI:0.00
PC:17012     Total:90      MisBP:0   MisRate:0.00%    MPKI:0.00
PC:16e76     Total:12      MisBP:0   MisRate:0.00%    MPKI:0.00
PC:21098     Total:12087      MisBP:0   MisRate:0.00%    MPKI:0.00
PC:17016     Total:24      MisBP:0   MisRate:0.00%    MPKI:0.00
PC:17018     Total:4      MisBP:0   MisRate:0.00%    MPKI:0.00
PC:21088     Total:12618      MisBP:0   MisRate:0.00%    MPKI:0.00
PC:1701c     Total:4      MisBP:0   MisRate:0.00%    MPKI:0.00
PC:17020     Total:4      MisBP:0   MisRate:0.00%    MPKI:0.00
PC:17024     Total:4      MisBP:0   MisRate:0.00%    MPKI:0.00
PC:210ac     Total:1558      MisBP:0   MisRate:0.00%    MPKI:0.00
PC:17028     Total:4      MisBP:0   MisRate:0.00%    MPKI:0.00
PC:1702c     Total:4      MisBP:0   MisRate:0.00%    MPKI:0.00
PC:1702e     Total:4      MisBP:0   MisRate:0.00%    MPKI:0.00
PC:17032     Total:4      MisBP:0   MisRate:0.00%    MPKI:0.00
PC:210b8     Total:1408      MisBP:0   MisRate:0.00%    MPKI:0.00
PC:17036     Total:4      MisBP:0   MisRate:0.00%    MPKI:0.00
PC:2107c     Total:12845      MisBP:0   MisRate:0.00%    MPKI:0.00
PC:16e50     Total:2160      MisBP:0   MisRate:0.00%    MPKI:0.00
PC:21072     Total:13087      MisBP:0   MisRate:0.00%    MPKI:0.00
PC:16fee     Total:121      MisBP:0   MisRate:0.00%    MPKI:0.00
PC:16e52     Total:2160      MisBP:0   MisRate:0.00%    MPKI:0.00
PC:21074     Total:13083      MisBP:0   MisRate:0.00%    MPKI:0.00
PC:16e54     Total:2160      MisBP:0   MisRate:0.00%    MPKI:0.00
PC:16ff2     Total:117      MisBP:0   MisRate:0.00%    MPKI:0.00
PC:21078     Total:12848      MisBP:0   MisRate:0.00%    MPKI:0.00
PC:16ff4     Total:117      MisBP:0   MisRate:0.00%    MPKI:0.00
PC:16e5a     Total:2121      MisBP:0   MisRate:0.00%    MPKI:0.00
PC:1703a     Total:4      MisBP:0   MisRate:0.00%    MPKI:0.00
PC:16ff8     Total:117      MisBP:0   MisRate:0.00%    MPKI:0.00
PC:16e5c     Total:2121      MisBP:0   MisRate:0.00%    MPKI:0.00
PC:2107e     Total:12689      MisBP:0   MisRate:0.00%    MPKI:0.00
PC:16ffa     Total:117      MisBP:0   MisRate:0.00%    MPKI:0.00
PC:16e60     Total:2121      MisBP:0   MisRate:0.00%    MPKI:0.00
PC:21082     Total:12643      MisBP:0   MisRate:0.00%    MPKI:0.00
PC:16ffe     Total:112      MisBP:0   MisRate:0.00%    MPKI:0.00
PC:21084     Total:12618      MisBP:0   MisRate:0.00%    MPKI:0.00
PC:17000     Total:71      MisBP:0   MisRate:0.00%    MPKI:0.00
PC:16fe6     Total:181      MisBP:0   MisRate:0.00%    MPKI:0.00
PC:2116e     Total:100      MisBP:0   MisRate:0.00%    MPKI:0.00
PC:21172     Total:100      MisBP:0   MisRate:0.00%    MPKI:0.00
PC:21176     Total:100      MisBP:0   MisRate:0.00%    MPKI:0.00
PC:16f58     Total:306146      MisBP:0   MisRate:0.00%    MPKI:0.00
PC:2117a     Total:89      MisBP:0   MisRate:0.00%    MPKI:0.00
PC:211f0     Total:13810      MisBP:0   MisRate:0.00%    MPKI:0.00
PC:16fce     Total:8149      MisBP:0   MisRate:0.00%    MPKI:0.00
PC:16fd2     Total:8149      MisBP:0   MisRate:0.00%    MPKI:0.00
PC:21204     Total:13609      MisBP:0   MisRate:0.00%    MPKI:0.00
PC:16fe2     Total:181      MisBP:0   MisRate:0.00%    MPKI:0.00
PC:2116a     Total:9389      MisBP:0   MisRate:0.00%    MPKI:0.00
PC:16a5c     Total:12620      MisBP:0   MisRate:0.00%    MPKI:0.00
PC:16a60     Total:12635      MisBP:0   MisRate:0.00%    MPKI:0.00
PC:16a62     Total:12635      MisBP:0   MisRate:0.00%    MPKI:0.00
PC:16a66     Total:12635      MisBP:0   MisRate:0.00%    MPKI:0.00
PC:16a6a     Total:12635      MisBP:0   MisRate:0.00%    MPKI:0.00
PC:16a6e     Total:12635      MisBP:0   MisRate:0.00%    MPKI:0.00
PC:16a72     Total:12635      MisBP:0   MisRate:0.00%    MPKI:0.00
PC:16a76     Total:12635      MisBP:0   MisRate:0.00%    MPKI:0.00
PC:16a7a     Total:12463      MisBP:0   MisRate:0.00%    MPKI:0.00
PC:21124     Total:334      MisBP:0   MisRate:0.00%    MPKI:0.00
PC:210fc     Total:3114      MisBP:0   MisRate:0.00%    MPKI:0.00
PC:21106     Total:9747      MisBP:0   MisRate:0.00%    MPKI:0.00
PC:21108     Total:9731      MisBP:0   MisRate:0.00%    MPKI:0.00
PC:2110c     Total:9714      MisBP:0   MisRate:0.00%    MPKI:0.00
PC:21110     Total:9713      MisBP:0   MisRate:0.00%    MPKI:0.00
PC:21112     Total:9711      MisBP:0   MisRate:0.00%    MPKI:0.00
PC:21118     Total:334      MisBP:0   MisRate:0.00%    MPKI:0.00
PC:2111c     Total:334      MisBP:0   MisRate:0.00%    MPKI:0.00
PC:21120     Total:334      MisBP:0   MisRate:0.00%    MPKI:0.00
PC:21122     Total:334      MisBP:0   MisRate:0.00%    MPKI:0.00
PC:16026     Total:30      MisBP:0   MisRate:0.00%    MPKI:0.00
PC:21128     Total:9701      MisBP:0   MisRate:0.00%    MPKI:0.00
PC:2112a     Total:9701      MisBP:0   MisRate:0.00%    MPKI:0.00
PC:2112e     Total:9692      MisBP:0   MisRate:0.00%    MPKI:0.00
PC:21130     Total:9683      MisBP:0   MisRate:0.00%    MPKI:0.00
PC:21134     Total:9683      MisBP:0   MisRate:0.00%    MPKI:0.00
PC:21136     Total:67749      MisBP:0   MisRate:0.00%    MPKI:0.00
PC:21156     Total:9426      MisBP:0   MisRate:0.00%    MPKI:0.00
PC:21162     Total:9400      MisBP:0   MisRate:0.00%    MPKI:0.00
PC:21166     Total:9392      MisBP:0   MisRate:0.00%    MPKI:0.00
PC:151c2     Total:1628      MisBP:0   MisRate:0.00%    MPKI:0.00
PC:1516a     Total:4567      MisBP:0   MisRate:0.00%    MPKI:0.00
PC:1516e     Total:4567      MisBP:0   MisRate:0.00%    MPKI:0.00
PC:15172     Total:4567      MisBP:0   MisRate:0.00%    MPKI:0.00
PC:15176     Total:4567      MisBP:0   MisRate:0.00%    MPKI:0.00
PC:1517a     Total:4567      MisBP:0   MisRate:0.00%    MPKI:0.00
PC:15196     Total:2750      MisBP:0   MisRate:0.00%    MPKI:0.00
PC:1519a     Total:2750      MisBP:0   MisRate:0.00%    MPKI:0.00
PC:1519e     Total:2748      MisBP:0   MisRate:0.00%    MPKI:0.00
PC:151a2     Total:2748      MisBP:0   MisRate:0.00%    MPKI:0.00
PC:151a6     Total:2748      MisBP:0   MisRate:0.00%    MPKI:0.00
PC:150ba     Total:17175      MisBP:0   MisRate:0.00%    MPKI:0.00
PC:151c6     Total:1628      MisBP:0   MisRate:0.00%    MPKI:0.00
PC:151ce     Total:1628      MisBP:0   MisRate:0.00%    MPKI:0.00
PC:151d2     Total:5904      MisBP:0   MisRate:0.00%    MPKI:0.00
PC:151e2     Total:7153      MisBP:0   MisRate:0.00%    MPKI:0.00
PC:151e6     Total:7153      MisBP:0   MisRate:0.00%    MPKI:0.00
PC:151ea     Total:7153      MisBP:0   MisRate:0.00%    MPKI:0.00
PC:151ee     Total:7153      MisBP:0   MisRate:0.00%    MPKI:0.00
PC:151f2     Total:7153      MisBP:0   MisRate:0.00%    MPKI:0.00
PC:151f4     Total:7153      MisBP:0   MisRate:0.00%    MPKI:0.00
PC:151f8     Total:7153      MisBP:0   MisRate:0.00%    MPKI:0.00
PC:1509a     Total:13915      MisBP:0   MisRate:0.00%    MPKI:0.00
PC:15086     Total:14236      MisBP:0   MisRate:0.00%    MPKI:0.00
PC:15088     Total:14236      MisBP:0   MisRate:0.00%    MPKI:0.00
PC:1508a     Total:14229      MisBP:0   MisRate:0.00%    MPKI:0.00
PC:1508c     Total:14229      MisBP:0   MisRate:0.00%    MPKI:0.00
PC:1508e     Total:14229      MisBP:0   MisRate:0.00%    MPKI:0.00
PC:15090     Total:13937      MisBP:0   MisRate:0.00%    MPKI:0.00
PC:15092     Total:13937      MisBP:0   MisRate:0.00%    MPKI:0.00
PC:15094     Total:13937      MisBP:0   MisRate:0.00%    MPKI:0.00
PC:15096     Total:13937      MisBP:0   MisRate:0.00%    MPKI:0.00
PC:15098     Total:13937      MisBP:0   MisRate:0.00%    MPKI:0.00
PC:151fc     Total:7153      MisBP:0   MisRate:0.00%    MPKI:0.00
PC:1509c     Total:13915      MisBP:0   MisRate:0.00%    MPKI:0.00
PC:1509e     Total:13915      MisBP:0   MisRate:0.00%    MPKI:0.00
PC:150a0     Total:17177      MisBP:0   MisRate:0.00%    MPKI:0.00
PC:150a4     Total:17177      MisBP:0   MisRate:0.00%    MPKI:0.00
PC:150a8     Total:17177      MisBP:0   MisRate:0.00%    MPKI:0.00
PC:150ac     Total:17176      MisBP:0   MisRate:0.00%    MPKI:0.00
PC:150b0     Total:17175      MisBP:0   MisRate:0.00%    MPKI:0.00
PC:150b2     Total:17175      MisBP:0   MisRate:0.00%    MPKI:0.00
PC:150b6     Total:17175      MisBP:0   MisRate:0.00%    MPKI:0.00
PC:1592c     Total:548      MisBP:0   MisRate:0.00%    MPKI:0.00
PC:1590c     Total:729      MisBP:0   MisRate:0.00%    MPKI:0.00
PC:15910     Total:729      MisBP:0   MisRate:0.00%    MPKI:0.00
PC:15914     Total:729      MisBP:0   MisRate:0.00%    MPKI:0.00
PC:15918     Total:729      MisBP:0   MisRate:0.00%    MPKI:0.00
PC:1591a     Total:728      MisBP:0   MisRate:0.00%    MPKI:0.00
PC:1591e     Total:728      MisBP:0   MisRate:0.00%    MPKI:0.00
PC:15920     Total:179      MisBP:0   MisRate:0.00%    MPKI:0.00
PC:15924     Total:179      MisBP:0   MisRate:0.00%    MPKI:0.00
PC:15926     Total:179      MisBP:0   MisRate:0.00%    MPKI:0.00
PC:15928     Total:548      MisBP:0   MisRate:0.00%    MPKI:0.00
PC:15908     Total:593      MisBP:0   MisRate:0.00%    MPKI:0.00
PC:1592e     Total:548      MisBP:0   MisRate:0.00%    MPKI:0.00
PC:150f2     Total:6936      MisBP:0   MisRate:0.00%    MPKI:0.00
PC:150f6     Total:6927      MisBP:0   MisRate:0.00%    MPKI:0.00
PC:150fa     Total:6927      MisBP:0   MisRate:0.00%    MPKI:0.00
PC:14ea8     Total:65530      MisBP:0   MisRate:0.00%    MPKI:0.00
PC:19874     Total:10970      MisBP:0   MisRate:0.00%    MPKI:0.00
PC:420fc     Total:14      MisBP:0   MisRate:0.00%    MPKI:0.00
PC:15a00     Total:10529      MisBP:0   MisRate:0.00%    MPKI:0.00
PC:15a04     Total:10529      MisBP:0   MisRate:0.00%    MPKI:0.00
PC:15952     Total:4331      MisBP:0   MisRate:0.00%    MPKI:0.00
PC:15930     Total:1567      MisBP:0   MisRate:0.00%    MPKI:0.00
PC:15934     Total:1567      MisBP:0   MisRate:0.00%    MPKI:0.00
PC:15938     Total:1567      MisBP:0   MisRate:0.00%    MPKI:0.00
PC:1593a     Total:1567      MisBP:0   MisRate:0.00%    MPKI:0.00
PC:1593e     Total:1567      MisBP:0   MisRate:0.00%    MPKI:0.00
PC:15940     Total:1511      MisBP:0   MisRate:0.00%    MPKI:0.00
PC:15946     Total:779      MisBP:0   MisRate:0.00%    MPKI:0.00
PC:15948     Total:779      MisBP:0   MisRate:0.00%    MPKI:0.00
PC:1594a     Total:4331      MisBP:0   MisRate:0.00%    MPKI:0.00
PC:1594e     Total:4331      MisBP:0   MisRate:0.00%    MPKI:0.00
PC:15084     Total:14255      MisBP:0   MisRate:0.00%    MPKI:0.00
PC:15954     Total:4331      MisBP:0   MisRate:0.00%    MPKI:0.00
PC:15958     Total:4331      MisBP:0   MisRate:0.00%    MPKI:0.00
PC:1595a     Total:4331      MisBP:0   MisRate:0.00%    MPKI:0.00
PC:15960     Total:984      MisBP:0   MisRate:0.00%    MPKI:0.00
PC:15962     Total:983      MisBP:0   MisRate:0.00%    MPKI:0.00
PC:15964     Total:1686      MisBP:0   MisRate:0.00%    MPKI:0.00
PC:158f8     Total:2158      MisBP:0   MisRate:0.00%    MPKI:0.00
PC:158fe     Total:2037      MisBP:0   MisRate:0.00%    MPKI:0.00
PC:15902     Total:2037      MisBP:0   MisRate:0.00%    MPKI:0.00
PC:179e8     Total:22098      MisBP:0   MisRate:0.00%    MPKI:0.00
PC:2be24     Total:7      MisBP:0   MisRate:0.00%    MPKI:0.00
PC:1cd60     Total:11487      MisBP:0   MisRate:0.00%    MPKI:0.00
PC:12b40     Total:1715      MisBP:0   MisRate:0.00%    MPKI:0.00
PC:1cd62     Total:11487      MisBP:0   MisRate:0.00%    MPKI:0.00
PC:179e4     Total:22902      MisBP:0   MisRate:0.00%    MPKI:0.00
PC:2be28     Total:19      MisBP:0   MisRate:0.00%    MPKI:0.00
PC:1cd64     Total:10      MisBP:0   MisRate:0.00%    MPKI:0.00
PC:2be2a     Total:19      MisBP:0   MisRate:0.00%    MPKI:0.00
PC:12b44     Total:10123      MisBP:0   MisRate:0.00%    MPKI:0.00
PC:1cd66     Total:10      MisBP:0   MisRate:0.00%    MPKI:0.00
PC:1cd5e     Total:11487      MisBP:0   MisRate:0.00%    MPKI:0.00
PC:2be2c     Total:19      MisBP:0   MisRate:0.00%    MPKI:0.00
PC:1cd6a     Total:10      MisBP:0   MisRate:0.00%    MPKI:0.00
PC:12b4a     Total:1522      MisBP:0   MisRate:0.00%    MPKI:0.00
PC:1cd6c     Total:10      MisBP:0   MisRate:0.00%    MPKI:0.00
PC:179ee     Total:22098      MisBP:0   MisRate:0.00%    MPKI:0.00
PC:2be32     Total:19      MisBP:0   MisRate:0.00%    MPKI:0.00
PC:2be34     Total:95      MisBP:0   MisRate:0.00%    MPKI:0.00
PC:12b4e     Total:1032      MisBP:0   MisRate:0.00%    MPKI:0.00
PC:1cd70     Total:10      MisBP:0   MisRate:0.00%    MPKI:0.00
PC:12b52     Total:1032      MisBP:0   MisRate:0.00%    MPKI:0.00
PC:1cd50     Total:11655      MisBP:0   MisRate:0.00%    MPKI:0.00
PC:1dff4     Total:4863      MisBP:0   MisRate:0.00%    MPKI:0.00
PC:1dffe     Total:4862      MisBP:0   MisRate:0.00%    MPKI:0.00
PC:12b24     Total:3      MisBP:0   MisRate:0.00%    MPKI:0.00
PC:1cd46     Total:48475      MisBP:0   MisRate:0.00%    MPKI:0.00
PC:12b26     Total:3      MisBP:0   MisRate:0.00%    MPKI:0.00
PC:1cd48     Total:48475      MisBP:0   MisRate:0.00%    MPKI:0.00
PC:12b2c     Total:3      MisBP:0   MisRate:0.00%    MPKI:0.00
PC:1cd4e     Total:11655      MisBP:0   MisRate:0.00%    MPKI:0.00
PC:2be14     Total:84      MisBP:0   MisRate:0.00%    MPKI:0.00
PC:12b2e     Total:15      MisBP:0   MisRate:0.00%    MPKI:0.00
PC:1cd74     Total:10      MisBP:0   MisRate:0.00%    MPKI:0.00
PC:2be16     Total:12      MisBP:0   MisRate:0.00%    MPKI:0.00
PC:1cd52     Total:11652      MisBP:0   MisRate:0.00%    MPKI:0.00
PC:2be18     Total:12      MisBP:0   MisRate:0.00%    MPKI:0.00
PC:1cd54     Total:11652      MisBP:0   MisRate:0.00%    MPKI:0.00
PC:2be1a     Total:12      MisBP:0   MisRate:0.00%    MPKI:0.00
PC:1cd56     Total:11652      MisBP:0   MisRate:0.00%    MPKI:0.00
PC:2be1c     Total:12      MisBP:0   MisRate:0.00%    MPKI:0.00
PC:1cd5a     Total:11487      MisBP:0   MisRate:0.00%    MPKI:0.00
PC:2be20     Total:12      MisBP:0   MisRate:0.00%    MPKI:0.00
PC:1506c     Total:26219      MisBP:0   MisRate:0.00%    MPKI:0.00
PC:14eb2     Total:17463      MisBP:0   MisRate:0.00%    MPKI:0.00
PC:14eb4     Total:17463      MisBP:0   MisRate:0.00%    MPKI:0.00
PC:14eb6     Total:17463      MisBP:0   MisRate:0.00%    MPKI:0.00
PC:14ebc     Total:11516      MisBP:0   MisRate:0.00%    MPKI:0.00
PC:15058     Total:26720      MisBP:0   MisRate:0.00%    MPKI:0.00
PC:1505c     Total:26720      MisBP:0   MisRate:0.00%    MPKI:0.00
PC:15060     Total:26719      MisBP:0   MisRate:0.00%    MPKI:0.00
PC:15064     Total:26719      MisBP:0   MisRate:0.00%    MPKI:0.00
PC:15066     Total:26219      MisBP:0   MisRate:0.00%    MPKI:0.00
PC:15068     Total:26219      MisBP:0   MisRate:0.00%    MPKI:0.00
PC:14eb0     Total:17463      MisBP:0   MisRate:0.00%    MPKI:0.00
PC:15072     Total:14692      MisBP:0   MisRate:0.00%    MPKI:0.00
PC:15074     Total:14692      MisBP:0   MisRate:0.00%    MPKI:0.00
PC:15076     Total:14692      MisBP:0   MisRate:0.00%    MPKI:0.00
PC:15078     Total:14692      MisBP:0   MisRate:0.00%    MPKI:0.00
PC:1507a     Total:14567      MisBP:0   MisRate:0.00%    MPKI:0.00
PC:1507c     Total:14567      MisBP:0   MisRate:0.00%    MPKI:0.00
PC:1507e     Total:14567      MisBP:0   MisRate:0.00%    MPKI:0.00
PC:15080     Total:14255      MisBP:0   MisRate:0.00%    MPKI:0.00
PC:15082     Total:14255      MisBP:0   MisRate:0.00%    MPKI:0.00
PC:14d90     Total:4370      MisBP:0   MisRate:0.00%    MPKI:0.00
PC:17d36     Total:684      MisBP:0   MisRate:0.00%    MPKI:0.00
PC:1cd7a     Total:10      MisBP:0   MisRate:0.00%    MPKI:0.00
PC:17d38     Total:684      MisBP:0   MisRate:0.00%    MPKI:0.00
PC:17d3a     Total:684      MisBP:0   MisRate:0.00%    MPKI:0.00
PC:12b5c     Total:951      MisBP:0   MisRate:0.00%    MPKI:0.00
PC:1cd7e     Total:10      MisBP:0   MisRate:0.00%    MPKI:0.00
PC:14d82     Total:4371      MisBP:0   MisRate:0.00%    MPKI:0.00
PC:14d86     Total:4371      MisBP:0   MisRate:0.00%    MPKI:0.00
PC:14d8a     Total:4371      MisBP:0   MisRate:0.00%    MPKI:0.00
PC:14d8c     Total:4371      MisBP:0   MisRate:0.00%    MPKI:0.00
PC:15a08     Total:10529      MisBP:0   MisRate:0.00%    MPKI:0.00
PC:14d94     Total:4370      MisBP:0   MisRate:0.00%    MPKI:0.00
PC:14d98     Total:4370      MisBP:0   MisRate:0.00%    MPKI:0.00
PC:14d9e     Total:3296      MisBP:0   MisRate:0.00%    MPKI:0.00
PC:14da2     Total:3296      MisBP:0   MisRate:0.00%    MPKI:0.00
PC:14da6     Total:3296      MisBP:0   MisRate:0.00%    MPKI:0.00
PC:14daa     Total:3296      MisBP:0   MisRate:0.00%    MPKI:0.00
PC:14dae     Total:3296      MisBP:0   MisRate:0.00%    MPKI:0.00
PC:14db4     Total:3221      MisBP:0   MisRate:0.00%    MPKI:0.00
PC:14eac     Total:37782      MisBP:0   MisRate:0.00%    MPKI:0.00
PC:17450     Total:3785      MisBP:0   MisRate:0.00%    MPKI:0.00
PC:17b66     Total:1401      MisBP:0   MisRate:0.00%    MPKI:0.00
[...]
PC:18f3c     Total:30793      MisBP:2234   MisRate:7.25%    MPKI:0.01
PC:1db86     Total:58393      MisBP:2236   MisRate:3.83%    MPKI:0.01
PC:13a22     Total:42566      MisBP:2245   MisRate:5.27%    MPKI:0.01
PC:196b0     Total:34488      MisBP:2252   MisRate:6.53%    MPKI:0.01
PC:123a0     Total:68403      MisBP:2258   MisRate:3.30%    MPKI:0.01
PC:15318     Total:7931      MisBP:2285   MisRate:28.81%    MPKI:0.01
PC:12ea8     Total:27032      MisBP:2308   MisRate:8.54%    MPKI:0.01
PC:18116     Total:151447      MisBP:2319   MisRate:1.53%    MPKI:0.01
PC:16e34     Total:36303      MisBP:2319   MisRate:6.39%    MPKI:0.01
PC:1d8fa     Total:19512      MisBP:2325   MisRate:11.92%    MPKI:0.01
PC:20054     Total:17015      MisBP:2346   MisRate:13.79%    MPKI:0.01
PC:16174     Total:16870      MisBP:2352   MisRate:13.94%    MPKI:0.01
PC:18c32     Total:27894      MisBP:2357   MisRate:8.45%    MPKI:0.01
PC:1cb2a     Total:12936      MisBP:2383   MisRate:18.42%    MPKI:0.01
PC:175f6     Total:380199      MisBP:2394   MisRate:0.63%    MPKI:0.01
PC:18f72     Total:25237      MisBP:2421   MisRate:9.59%    MPKI:0.01
PC:210f8     Total:14568      MisBP:2481   MisRate:17.03%    MPKI:0.01
PC:1d908     Total:7967      MisBP:2523   MisRate:31.67%    MPKI:0.01
PC:1956e     Total:16220      MisBP:2546   MisRate:15.70%    MPKI:0.01
PC:1ccb6     Total:26796      MisBP:2619   MisRate:9.77%    MPKI:0.01
PC:1c9e8     Total:30373      MisBP:2620   MisRate:8.63%    MPKI:0.01
PC:197c8     Total:35302      MisBP:2636   MisRate:7.47%    MPKI:0.01
PC:1ffb4     Total:14188      MisBP:2668   MisRate:18.80%    MPKI:0.01
PC:15650     Total:7700      MisBP:2674   MisRate:34.73%    MPKI:0.01
PC:19a00     Total:10182      MisBP:2681   MisRate:26.33%    MPKI:0.01
PC:152cc     Total:9850      MisBP:2742   MisRate:27.84%    MPKI:0.01
PC:1d228     Total:19269      MisBP:2745   MisRate:14.25%    MPKI:0.01
PC:20e26     Total:24632      MisBP:2781   MisRate:11.29%    MPKI:0.01
PC:16148     Total:20830      MisBP:2803   MisRate:13.46%    MPKI:0.01
PC:18ed6     Total:11396      MisBP:2814   MisRate:24.69%    MPKI:0.01
PC:15556     Total:14595      MisBP:2867   MisRate:19.64%    MPKI:0.01
PC:192bc     Total:29666      MisBP:2922   MisRate:9.85%    MPKI:0.01
PC:1732e     Total:19457      MisBP:2934   MisRate:15.08%    MPKI:0.01
PC:1d6b8     Total:13047      MisBP:2945   MisRate:22.57%    MPKI:0.01
PC:1d7b8     Total:12530      MisBP:2981   MisRate:23.79%    MPKI:0.01
PC:19460     Total:24360      MisBP:2990   MisRate:12.27%    MPKI:0.01
PC:179f0     Total:22098      MisBP:3055   MisRate:13.82%    MPKI:0.01
PC:19490     Total:24258      MisBP:3060   MisRate:12.61%    MPKI:0.01
PC:17856     Total:84212      MisBP:3103   MisRate:3.68%    MPKI:0.01
PC:20004     Total:10087      MisBP:3108   MisRate:30.81%    MPKI:0.01
PC:12382     Total:157741      MisBP:3131   MisRate:1.98%    MPKI:0.01
PC:1234c     Total:256508      MisBP:3153   MisRate:1.23%    MPKI:0.01
PC:122ec     Total:189749      MisBP:3206   MisRate:1.69%    MPKI:0.01
PC:17266     Total:29657      MisBP:3220   MisRate:10.86%    MPKI:0.01
PC:16768     Total:39398      MisBP:3233   MisRate:8.21%    MPKI:0.01
PC:1ff16     Total:277317      MisBP:3244   MisRate:1.17%    MPKI:0.01
PC:175e6     Total:26580      MisBP:3245   MisRate:12.21%    MPKI:0.01
PC:1952e     Total:48046      MisBP:3251   MisRate:6.77%    MPKI:0.01
PC:1feaa     Total:284333      MisBP:3283   MisRate:1.15%    MPKI:0.01
PC:15302     Total:8803      MisBP:3303   MisRate:37.52%    MPKI:0.01
PC:1fe94     Total:306310      MisBP:3304   MisRate:1.08%    MPKI:0.01
PC:17842     Total:83788      MisBP:3315   MisRate:3.96%    MPKI:0.01
PC:19914     Total:21092      MisBP:3342   MisRate:15.84%    MPKI:0.01
PC:14d7e     Total:10519      MisBP:3360   MisRate:31.94%    MPKI:0.01
PC:15436     Total:13376      MisBP:3364   MisRate:25.15%    MPKI:0.01
PC:17f7c     Total:155246      MisBP:3394   MisRate:2.19%    MPKI:0.01
PC:1904a     Total:28894      MisBP:3401   MisRate:11.77%    MPKI:0.01
PC:174ee     Total:105162      MisBP:3443   MisRate:3.27%    MPKI:0.01
PC:1d368     Total:60408      MisBP:3466   MisRate:5.74%    MPKI:0.01
PC:167fe     Total:32839      MisBP:3501   MisRate:10.66%    MPKI:0.01
PC:16e00     Total:70122      MisBP:3528   MisRate:5.03%    MPKI:0.01
PC:173c0     Total:29683      MisBP:3546   MisRate:11.95%    MPKI:0.01
PC:1d71c     Total:13832      MisBP:3581   MisRate:25.89%    MPKI:0.01
PC:152b8     Total:16085      MisBP:3585   MisRate:22.29%    MPKI:0.01
PC:1ff20     Total:275041      MisBP:3598   MisRate:1.31%    MPKI:0.01
PC:188f0     Total:131098      MisBP:3684   MisRate:2.81%    MPKI:0.01
PC:14eae     Total:37782      MisBP:3690   MisRate:9.77%    MPKI:0.01
PC:18eee     Total:15358      MisBP:3694   MisRate:24.05%    MPKI:0.01
PC:122ce     Total:543813      MisBP:3736   MisRate:0.69%    MPKI:0.01
PC:12398     Total:77682      MisBP:3748   MisRate:4.82%    MPKI:0.01
PC:199a6     Total:44852      MisBP:3768   MisRate:8.40%    MPKI:0.01
PC:1ff92     Total:470768      MisBP:3771   MisRate:0.80%    MPKI:0.01
PC:18efe     Total:44709      MisBP:3781   MisRate:8.46%    MPKI:0.01
PC:18098     Total:37554      MisBP:3792   MisRate:10.10%    MPKI:0.01
PC:18714     Total:56659      MisBP:3797   MisRate:6.70%    MPKI:0.01
PC:19800     Total:38044      MisBP:3808   MisRate:10.01%    MPKI:0.01
PC:189da     Total:106246      MisBP:3822   MisRate:3.60%    MPKI:0.01
PC:14d34     Total:154252      MisBP:3826   MisRate:2.48%    MPKI:0.01
PC:173a6     Total:36817      MisBP:3829   MisRate:10.40%    MPKI:0.01
PC:1994e     Total:31271      MisBP:3967   MisRate:12.69%    MPKI:0.01
PC:1d6e0     Total:80619      MisBP:3992   MisRate:4.95%    MPKI:0.01
PC:21104     Total:16409      MisBP:4026   MisRate:24.54%    MPKI:0.01
PC:1d9d0     Total:118961      MisBP:4045   MisRate:3.40%    MPKI:0.01
PC:159e0     Total:72959      MisBP:4068   MisRate:5.58%    MPKI:0.01
PC:2026c     Total:49580      MisBP:4073   MisRate:8.22%    MPKI:0.01
PC:195f0     Total:28200      MisBP:4164   MisRate:14.77%    MPKI:0.01
PC:19358     Total:66615      MisBP:4204   MisRate:6.31%    MPKI:0.01
PC:1d6fe     Total:61769      MisBP:4210   MisRate:6.82%    MPKI:0.01
PC:1d802     Total:24603      MisBP:4232   MisRate:17.20%    MPKI:0.01
PC:1ff84     Total:438596      MisBP:4241   MisRate:0.97%    MPKI:0.01
PC:1ff02     Total:302492      MisBP:4255   MisRate:1.41%    MPKI:0.01
PC:1d56c     Total:33210      MisBP:4274   MisRate:12.87%    MPKI:0.01
PC:1db52     Total:80820      MisBP:4327   MisRate:5.35%    MPKI:0.01
PC:1750a     Total:103977      MisBP:4341   MisRate:4.17%    MPKI:0.01
PC:19186     Total:89073      MisBP:4342   MisRate:4.87%    MPKI:0.01
PC:1da8e     Total:10479      MisBP:4362   MisRate:41.63%    MPKI:0.01
PC:198d0     Total:30944      MisBP:4367   MisRate:14.11%    MPKI:0.01
PC:17630     Total:25260      MisBP:4477   MisRate:17.72%    MPKI:0.01
PC:2104e     Total:24176      MisBP:4507   MisRate:18.64%    MPKI:0.01
PC:1937e     Total:59349      MisBP:4544   MisRate:7.66%    MPKI:0.01
PC:155ea     Total:33010      MisBP:4602   MisRate:13.94%    MPKI:0.01
PC:197e0     Total:36607      MisBP:4604   MisRate:12.58%    MPKI:0.01
PC:1ff2e     Total:368068      MisBP:4607   MisRate:1.25%    MPKI:0.01
PC:1915c     Total:135547      MisBP:4634   MisRate:3.42%    MPKI:0.01
PC:198dc     Total:23194      MisBP:4645   MisRate:20.03%    MPKI:0.01
PC:1ff0c     Total:298396      MisBP:4663   MisRate:1.56%    MPKI:0.02
PC:17624     Total:24056      MisBP:4676   MisRate:19.44%    MPKI:0.02
PC:12d5e     Total:43789      MisBP:4679   MisRate:10.69%    MPKI:0.02
PC:1db6c     Total:76772      MisBP:4719   MisRate:6.15%    MPKI:0.02
PC:16658     Total:150045      MisBP:4805   MisRate:3.20%    MPKI:0.02
PC:12274     Total:123049      MisBP:4812   MisRate:3.91%    MPKI:0.02
PC:1cfb4     Total:41046      MisBP:4860   MisRate:11.84%    MPKI:0.02
PC:14eb8     Total:17463      MisBP:4970   MisRate:28.46%    MPKI:0.02
PC:19342     Total:110213      MisBP:5026   MisRate:4.56%    MPKI:0.02
PC:15ac0     Total:31466      MisBP:5039   MisRate:16.01%    MPKI:0.02
PC:153ac     Total:12877      MisBP:5072   MisRate:39.39%    MPKI:0.02
PC:19678     Total:31259      MisBP:5120   MisRate:16.38%    MPKI:0.02
PC:1cd2a     Total:43229      MisBP:5146   MisRate:11.90%    MPKI:0.02
PC:1958e     Total:45453      MisBP:5176   MisRate:11.39%    MPKI:0.02
PC:1fea0     Total:288213      MisBP:5182   MisRate:1.80%    MPKI:0.02
PC:1827a     Total:35742      MisBP:5271   MisRate:14.75%    MPKI:0.02
PC:18eb4     Total:50485      MisBP:5591   MisRate:11.07%    MPKI:0.02
PC:1fe8e     Total:310054      MisBP:5613   MisRate:1.81%    MPKI:0.02
PC:15c9a     Total:53082      MisBP:5679   MisRate:10.70%    MPKI:0.02
PC:16f7e     Total:87590      MisBP:5745   MisRate:6.56%    MPKI:0.02
PC:19368     Total:64899      MisBP:5759   MisRate:8.87%    MPKI:0.02
PC:12dba     Total:54279      MisBP:5980   MisRate:11.02%    MPKI:0.02
PC:16d72     Total:162798      MisBP:5990   MisRate:3.68%    MPKI:0.02
PC:189ee     Total:82585      MisBP:6028   MisRate:7.30%    MPKI:0.02
PC:194ee     Total:93710      MisBP:6113   MisRate:6.52%    MPKI:0.02
PC:1d0f8     Total:34841      MisBP:6261   MisRate:17.97%    MPKI:0.02
PC:193b0     Total:67070      MisBP:6275   MisRate:9.36%    MPKI:0.02
PC:1cd4a     Total:48475      MisBP:6287   MisRate:12.97%    MPKI:0.02
PC:159e8     Total:21222      MisBP:6322   MisRate:29.79%    MPKI:0.02
PC:153f8     Total:52266      MisBP:6330   MisRate:12.11%    MPKI:0.02
PC:2010e     Total:55307      MisBP:6345   MisRate:11.47%    MPKI:0.02
PC:18abe     Total:238658      MisBP:6452   MisRate:2.70%    MPKI:0.02
PC:1919c     Total:76476      MisBP:6513   MisRate:8.52%    MPKI:0.02
PC:191f8     Total:42889      MisBP:6550   MisRate:15.27%    MPKI:0.02
PC:1ff34     Total:365265      MisBP:6598   MisRate:1.81%    MPKI:0.02
PC:1fefe     Total:331922      MisBP:6718   MisRate:2.02%    MPKI:0.02
PC:20258     Total:48698      MisBP:6889   MisRate:14.15%    MPKI:0.02
PC:18b00     Total:13571      MisBP:6943   MisRate:51.16%    MPKI:0.02
PC:19554     Total:79024      MisBP:7022   MisRate:8.89%    MPKI:0.02
PC:18acc     Total:238382      MisBP:7078   MisRate:2.97%    MPKI:0.02
PC:193dc     Total:37308      MisBP:7147   MisRate:19.16%    MPKI:0.02
PC:1da88     Total:102618      MisBP:7268   MisRate:7.08%    MPKI:0.02
PC:18ee8     Total:43721      MisBP:7292   MisRate:16.68%    MPKI:0.02
PC:19180     Total:112707      MisBP:7301   MisRate:6.48%    MPKI:0.02
PC:1d4a0     Total:46274      MisBP:7421   MisRate:16.04%    MPKI:0.02
PC:14d5e     Total:151651      MisBP:7466   MisRate:4.92%    MPKI:0.02
PC:211be     Total:38496      MisBP:7466   MisRate:19.39%    MPKI:0.02
PC:153d2     Total:18682      MisBP:7714   MisRate:41.29%    MPKI:0.02
PC:1dbae     Total:70550      MisBP:7807   MisRate:11.07%    MPKI:0.03
PC:1d58a     Total:53274      MisBP:7900   MisRate:14.83%    MPKI:0.03
PC:16660     Total:178359      MisBP:8017   MisRate:4.49%    MPKI:0.03
PC:1d50a     Total:67368      MisBP:8042   MisRate:11.94%    MPKI:0.03
PC:19330     Total:155022      MisBP:8205   MisRate:5.29%    MPKI:0.03
PC:1229e     Total:640499      MisBP:8464   MisRate:1.32%    MPKI:0.03
PC:175f0     Total:391485      MisBP:8642   MisRate:2.21%    MPKI:0.03
PC:12284     Total:501936      MisBP:8649   MisRate:1.72%    MPKI:0.03
PC:17b82     Total:59005      MisBP:8731   MisRate:14.80%    MPKI:0.03
PC:1da5a     Total:173074      MisBP:8972   MisRate:5.18%    MPKI:0.03
PC:123c2     Total:69684      MisBP:9107   MisRate:13.07%    MPKI:0.03
PC:1fec2     Total:480810      MisBP:9145   MisRate:1.90%    MPKI:0.03
PC:1febc     Total:516060      MisBP:9183   MisRate:1.78%    MPKI:0.03
PC:1dbfa     Total:38259      MisBP:9386   MisRate:24.53%    MPKI:0.03
PC:18bdc     Total:38178      MisBP:9577   MisRate:25.09%    MPKI:0.03
PC:1506e     Total:26219      MisBP:9621   MisRate:36.69%    MPKI:0.03
PC:1cb22     Total:527031      MisBP:9655   MisRate:1.83%    MPKI:0.03
PC:17f34     Total:181258      MisBP:9865   MisRate:5.44%    MPKI:0.03
PC:171d0     Total:36305      MisBP:10138   MisRate:27.92%    MPKI:0.03
PC:123a4     Total:59793      MisBP:10177   MisRate:17.02%    MPKI:0.03
PC:122e4     Total:251990      MisBP:10239   MisRate:4.06%    MPKI:0.03
PC:12292     Total:329024      MisBP:10367   MisRate:3.15%    MPKI:0.03
PC:1d570     Total:27004      MisBP:10377   MisRate:38.43%    MPKI:0.03
PC:17280     Total:458537      MisBP:10501   MisRate:2.29%    MPKI:0.03
PC:14d64     Total:121061      MisBP:10509   MisRate:8.68%    MPKI:0.03
PC:12342     Total:99643      MisBP:10642   MisRate:10.68%    MPKI:0.03
PC:201ca     Total:54203      MisBP:11067   MisRate:20.42%    MPKI:0.04
PC:166e0     Total:197313      MisBP:11210   MisRate:5.68%    MPKI:0.04
PC:17320     Total:49911      MisBP:11374   MisRate:22.79%    MPKI:0.04
PC:1fe98     Total:295602      MisBP:11408   MisRate:3.86%    MPKI:0.04
PC:1d1ec     Total:71344      MisBP:11520   MisRate:16.15%    MPKI:0.04
PC:1d1ae     Total:94229      MisBP:11583   MisRate:12.29%    MPKI:0.04
PC:1d51a     Total:36748      MisBP:11715   MisRate:31.88%    MPKI:0.04
PC:1d5ac     Total:52688      MisBP:11781   MisRate:22.36%    MPKI:0.04
PC:17afa     Total:86711      MisBP:11902   MisRate:13.73%    MPKI:0.04
PC:188c2     Total:149800      MisBP:12149   MisRate:8.11%    MPKI:0.04
PC:1cac0     Total:499794      MisBP:12187   MisRate:2.44%    MPKI:0.04
PC:3334c     Total:81115      MisBP:12258   MisRate:15.11%    MPKI:0.04
PC:1560c     Total:71316      MisBP:12343   MisRate:17.31%    MPKI:0.04
PC:172f8     Total:320735      MisBP:12463   MisRate:3.89%    MPKI:0.04
PC:12350     Total:252402      MisBP:12475   MisRate:4.94%    MPKI:0.04
PC:18e00     Total:734690      MisBP:12538   MisRate:1.71%    MPKI:0.04
PC:1d004     Total:18234      MisBP:13369   MisRate:73.32%    MPKI:0.04
PC:1724a     Total:72349      MisBP:13838   MisRate:19.13%    MPKI:0.04
PC:16f8e     Total:167850      MisBP:14173   MisRate:8.44%    MPKI:0.05
PC:18aae     Total:227246      MisBP:14700   MisRate:6.47%    MPKI:0.05
PC:122fa     Total:309573      MisBP:16272   MisRate:5.26%    MPKI:0.05
PC:1811c     Total:185014      MisBP:16388   MisRate:8.86%    MPKI:0.05
PC:1916c     Total:122851      MisBP:16390   MisRate:13.34%    MPKI:0.05
PC:1782c     Total:86375      MisBP:16478   MisRate:19.08%    MPKI:0.05
PC:1cff8     Total:45205      MisBP:16660   MisRate:36.85%    MPKI:0.05
PC:12334     Total:184919      MisBP:16948   MisRate:9.17%    MPKI:0.05
PC:123b0     Total:176106      MisBP:17303   MisRate:9.83%    MPKI:0.06
PC:17f76     Total:177111      MisBP:17340   MisRate:9.79%    MPKI:0.06
PC:1230a     Total:346325      MisBP:17613   MisRate:5.09%    MPKI:0.06
PC:16f66     Total:306084      MisBP:17714   MisRate:5.79%    MPKI:0.06
PC:1ff0e     Total:292796      MisBP:18010   MisRate:6.15%    MPKI:0.06
PC:174d8     Total:98940      MisBP:18175   MisRate:18.37%    MPKI:0.06
PC:19518     Total:98129      MisBP:18506   MisRate:18.86%    MPKI:0.06
PC:1caee     Total:507927      MisBP:19140   MisRate:3.77%    MPKI:0.06
PC:15a8a     Total:50776      MisBP:19391   MisRate:38.19%    MPKI:0.06
PC:1230e     Total:211860      MisBP:19841   MisRate:9.37%    MPKI:0.06
PC:1231e     Total:182945      MisBP:20169   MisRate:11.02%    MPKI:0.07
PC:17224     Total:388588      MisBP:21393   MisRate:5.51%    MPKI:0.07
PC:1ff24     Total:272927      MisBP:22530   MisRate:8.25%    MPKI:0.07
PC:123be     Total:206618      MisBP:22698   MisRate:10.99%    MPKI:0.07
PC:1cad8     Total:506484      MisBP:22879   MisRate:4.52%    MPKI:0.07
PC:16510     Total:165481      MisBP:23523   MisRate:14.21%    MPKI:0.08
PC:1666a     Total:155773      MisBP:23662   MisRate:15.19%    MPKI:0.08
PC:1ca7e     Total:120192      MisBP:23931   MisRate:19.91%    MPKI:0.08
PC:18c72     Total:466862      MisBP:24128   MisRate:5.17%    MPKI:0.08
PC:18006     Total:176716      MisBP:24793   MisRate:14.03%    MPKI:0.08
PC:16508     Total:175891      MisBP:26547   MisRate:15.09%    MPKI:0.09
PC:15028     Total:45158      MisBP:26703   MisRate:59.13%    MPKI:0.09
PC:122f0     Total:184757      MisBP:27108   MisRate:14.67%    MPKI:0.09
PC:187c6     Total:212242      MisBP:28022   MisRate:13.20%    MPKI:0.09
PC:1ff56     Total:295405      MisBP:28289   MisRate:9.58%    MPKI:0.09
PC:18d0c     Total:453487      MisBP:31140   MisRate:6.87%    MPKI:0.10
PC:1720c     Total:430593      MisBP:32340   MisRate:7.51%    MPKI:0.10
PC:18d4e     Total:456755      MisBP:32901   MisRate:7.20%    MPKI:0.11
PC:17110     Total:1558220      MisBP:35681   MisRate:2.29%    MPKI:0.12
PC:1cb02     Total:516399      MisBP:35714   MisRate:6.92%    MPKI:0.12
PC:187f2     Total:345623      MisBP:35727   MisRate:10.34%    MPKI:0.12
PC:122a2     Total:632109      MisBP:37026   MisRate:5.86%    MPKI:0.12
PC:1fede     Total:269807      MisBP:38346   MisRate:14.21%    MPKI:0.12
PC:1feb0     Total:275920      MisBP:41040   MisRate:14.87%    MPKI:0.13
PC:18804     Total:326529      MisBP:41792   MisRate:12.80%    MPKI:0.13
PC:1235e     Total:302681      MisBP:41879   MisRate:13.84%    MPKI:0.14
PC:122fe     Total:268909      MisBP:41963   MisRate:15.60%    MPKI:0.14
PC:187d8     Total:264269      MisBP:42663   MisRate:16.14%    MPKI:0.14
PC:16f6a     Total:231771      MisBP:43367   MisRate:18.71%    MPKI:0.14
PC:12296     Total:312181      MisBP:44469   MisRate:14.24%    MPKI:0.14
PC:172de     Total:371429      MisBP:45513   MisRate:12.25%    MPKI:0.15
PC:18d18     Total:1354416      MisBP:46668   MisRate:3.45%    MPKI:0.15
PC:18d3e     Total:656480      MisBP:51791   MisRate:7.89%    MPKI:0.17
PC:1ca5a     Total:511442      MisBP:52414   MisRate:10.25%    MPKI:0.17
PC:18e26     Total:628075      MisBP:53243   MisRate:8.48%    MPKI:0.17
PC:1fec8     Total:476864      MisBP:57159   MisRate:11.99%    MPKI:0.18
PC:17146     Total:274220      MisBP:57392   MisRate:20.93%    MPKI:0.19
PC:122b6     Total:569242      MisBP:57569   MisRate:10.11%    MPKI:0.19
PC:1d9c4     Total:2958036      MisBP:59798   MisRate:2.02%    MPKI:0.19
PC:172fc     Total:293566      MisBP:61759   MisRate:21.04%    MPKI:0.20
PC:1d1a8     Total:365510      MisBP:62428   MisRate:17.08%    MPKI:0.20
PC:1feda     Total:651331      MisBP:67201   MisRate:10.32%    MPKI:0.22
PC:1ff4c     Total:496053      MisBP:67395   MisRate:13.59%    MPKI:0.22
PC:1ff38     Total:362853      MisBP:68369   MisRate:18.84%    MPKI:0.22
PC:18800     Total:365333      MisBP:69241   MisRate:18.95%    MPKI:0.22
PC:17226     Total:294644      MisBP:72961   MisRate:24.76%    MPKI:0.24
PC:18e0a     Total:738292      MisBP:76667   MisRate:10.38%    MPKI:0.25
PC:189a6     Total:804407      MisBP:77890   MisRate:9.68%    MPKI:0.25
PC:1228a     Total:497013      MisBP:83126   MisRate:16.73%    MPKI:0.27
PC:18d38     Total:1046404      MisBP:95418   MisRate:9.12%    MPKI:0.31
PC:22f70     Total:162376      MisBP:97964   MisRate:60.33%    MPKI:0.32
PC:122b0     Total:787311      MisBP:112504   MisRate:14.29%    MPKI:0.36
PC:18e4e     Total:618570      MisBP:115821   MisRate:18.72%    MPKI:0.37
PC:189b8     Total:845680      MisBP:116648   MisRate:13.79%    MPKI:0.38
PC:18894     Total:1068921      MisBP:116965   MisRate:10.94%    MPKI:0.38
PC:18d20     Total:1357414      MisBP:133766   MisRate:9.85%    MPKI:0.43
PC:188a6     Total:1135008      MisBP:150118   MisRate:13.23%    MPKI:0.48
PC:189b4     Total:1282758      MisBP:164753   MisRate:12.84%    MPKI:0.53
PC:1712c     Total:1478526      MisBP:167085   MisRate:11.30%    MPKI:0.54
PC:187d4     Total:1248959      MisBP:196951   MisRate:15.77%    MPKI:0.64
PC:17136     Total:1766873      MisBP:268241   MisRate:15.18%    MPKI:0.87
PC:188a2     Total:2666812      MisBP:301494   MisRate:11.31%    MPKI:0.97
Totfetch:554954690  TotInsts:310000002  TotMis : inf%   MPKI : 18.92
=============finish sim!!!!!!=============
Done running SimPoint!
