Global frequency set at 1000000000000 ticks per second
 Register [printBranch()] ExitCallback !!!!!!! 
gem5 Simulator System.  https://www.gem5.org
gem5 is copyrighted software; use the --copyright option for details.

gem5 version 22.0.0.2
gem5 compiled Sep  7 2022 00:42:18
gem5 started Sep  7 2022 22:21:31
gem5 executing on a100, pid 3283334
command line: /data/zxf/gem5/gem5-prof/build/ARM/gem5.fast --outdir=/data/zxf/checkpoint/spec2006/458.sjeng/prof/sjeng_ckp_2 /data/zxf/gem5/gem5-prof/configs/example/se.py --cpu-type O3CPU --cpu-clock 1GHz --num-cpu 1 --l1d-hwp-type=BOPPrefetcher --caches --l2cache --l1i_size 32kB --l1d_size 32kB --l2_size 1MB --l1i_assoc 8 --l1d_assoc 8 --l2_assoc 16 --cacheline_size 64 --mem-type DDR3_2133_8x8 --mem-size 16GB --restore-simpoint-checkpoint -r 2 --checkpoint-dir /data/zxf/checkpoint/spec2006/458.sjeng/ckpt -c sjeng_base.gcc41-64bit -o ref.txt

info: Standard input is not a terminal, disabling listeners.
Resuming from /data/zxf/checkpoint/spec2006/458.sjeng/ckpt/cpt.simpoint_01_inst_5690000000_weight_0.537037_interval_300000000_warmup_10000000
Resuming from SimPoint #1, start_inst:5690000000, weight:0.537037, interval:300000000, warmup:10000000
Switch at curTick count:10000
Switched CPUS @ tick 3754768607000
[(<m5.objects.ArmCPU.ArmAtomicSimpleCPU object at 0x7f7f0fcdf970>, <m5.objects.ArmCPU.ArmO3CPU object at 0x7f7f0fcf7be0>)]
switching cpus



+++++++++++++++++++++++++zxf print simpoint+++++++++++++++++++++++++++
Warmed up! Dumping and resetting stats!


=============start sim!!!!!!=============
 8  1.61   1265922 Rd8 d6 Rxd6 Qxe5+ Kd8 Rd3 b3 axb3 Rxd3 Qxc7+ Kxc7 cxd3 
PC:19bac     Total:1      MisBP:0   MisRate:0.00%    MPKI:0.00
PC:230a2     Total:173      MisBP:0   MisRate:0.00%    MPKI:0.00
PC:191aa     Total:26794      MisBP:0   MisRate:0.00%    MPKI:0.00
PC:18e8c     Total:55358      MisBP:0   MisRate:0.00%    MPKI:0.00
PC:230ae     Total:37732      MisBP:0   MisRate:0.00%    MPKI:0.00
PC:189b2     Total:1452494      MisBP:0   MisRate:0.00%    MPKI:0.00
PC:4123a     Total:54      MisBP:0   MisRate:0.00%    MPKI:0.00
PC:191b6     Total:1133      MisBP:0   MisRate:0.00%    MPKI:0.00
PC:413c6     Total:292      MisBP:0   MisRate:0.00%    MPKI:0.00
PC:173ec     Total:24743      MisBP:0   MisRate:0.00%    MPKI:0.00
PC:123aa     Total:113664      MisBP:0   MisRate:0.00%    MPKI:0.00
PC:19baa     Total:1      MisBP:0   MisRate:0.00%    MPKI:0.00
PC:30a12     Total:7      MisBP:0   MisRate:0.00%    MPKI:0.00
PC:18e80     Total:28212      MisBP:0   MisRate:0.00%    MPKI:0.00
PC:30a16     Total:7      MisBP:0   MisRate:0.00%    MPKI:0.00
PC:19bb0     Total:1      MisBP:0   MisRate:0.00%    MPKI:0.00
PC:19bb6     Total:1      MisBP:0   MisRate:0.00%    MPKI:0.00
PC:19bba     Total:1      MisBP:0   MisRate:0.00%    MPKI:0.00
PC:16702     Total:49170      MisBP:0   MisRate:0.00%    MPKI:0.00
PC:16706     Total:49169      MisBP:0   MisRate:0.00%    MPKI:0.00
PC:18ec4     Total:15285      MisBP:0   MisRate:0.00%    MPKI:0.00
PC:1df06     Total:8118      MisBP:0   MisRate:0.00%    MPKI:0.00
PC:16708     Total:49169      MisBP:0   MisRate:0.00%    MPKI:0.00
PC:1670c     Total:49169      MisBP:0   MisRate:0.00%    MPKI:0.00
PC:230ec     Total:208130      MisBP:0   MisRate:0.00%    MPKI:0.00
PC:2309c     Total:173      MisBP:0   MisRate:0.00%    MPKI:0.00
PC:413ac     Total:222      MisBP:0   MisRate:0.00%    MPKI:0.00
PC:18e76     Total:28010      MisBP:0   MisRate:0.00%    MPKI:0.00
PC:23098     Total:173      MisBP:0   MisRate:0.00%    MPKI:0.00
PC:191a0     Total:14902      MisBP:0   MisRate:0.00%    MPKI:0.00
PC:1e1e2     Total:1      MisBP:0   MisRate:0.00%    MPKI:0.00
PC:413b0     Total:222      MisBP:0   MisRate:0.00%    MPKI:0.00
PC:169e4     Total:1572      MisBP:0   MisRate:0.00%    MPKI:0.00
PC:191a2     Total:14902      MisBP:0   MisRate:0.00%    MPKI:0.00
PC:1e1e4     Total:1      MisBP:0   MisRate:0.00%    MPKI:0.00
PC:2ae2a     Total:13      MisBP:0   MisRate:0.00%    MPKI:0.00
PC:169e6     Total:1572      MisBP:0   MisRate:0.00%    MPKI:0.00
PC:18e7a     Total:32067      MisBP:0   MisRate:0.00%    MPKI:0.00
PC:18eca     Total:15285      MisBP:0   MisRate:0.00%    MPKI:0.00
PC:19018     Total:2393      MisBP:0   MisRate:0.00%    MPKI:0.00
PC:191a4     Total:14902      MisBP:0   MisRate:0.00%    MPKI:0.00
PC:413b4     Total:222      MisBP:0   MisRate:0.00%    MPKI:0.00
PC:18e7c     Total:32067      MisBP:0   MisRate:0.00%    MPKI:0.00
PC:2309e     Total:173      MisBP:0   MisRate:0.00%    MPKI:0.00
PC:2cde6     Total:80      MisBP:0   MisRate:0.00%    MPKI:0.00
PC:4122a     Total:54      MisBP:0   MisRate:0.00%    MPKI:0.00
PC:191a6     Total:14902      MisBP:0   MisRate:0.00%    MPKI:0.00
PC:169ea     Total:1572      MisBP:0   MisRate:0.00%    MPKI:0.00
PC:191a8     Total:26794      MisBP:0   MisRate:0.00%    MPKI:0.00
PC:413b8     Total:222      MisBP:0   MisRate:0.00%    MPKI:0.00
PC:2317e     Total:859      MisBP:0   MisRate:0.00%    MPKI:0.00
PC:28018     Total:128      MisBP:0   MisRate:0.00%    MPKI:0.00
PC:16796     Total:15014      MisBP:0   MisRate:0.00%    MPKI:0.00
PC:41ccc     Total:11      MisBP:0   MisRate:0.00%    MPKI:0.00
PC:f8330     Total:1      MisBP:0   MisRate:0.00%    MPKI:0.00
PC:23178     Total:191877      MisBP:0   MisRate:0.00%    MPKI:0.00
PC:18f56     Total:28633      MisBP:0   MisRate:0.00%    MPKI:0.00
PC:2801c     Total:64      MisBP:0   MisRate:0.00%    MPKI:0.00
PC:1679a     Total:14247      MisBP:0   MisRate:0.00%    MPKI:0.00
PC:41cd0     Total:11      MisBP:0   MisRate:0.00%    MPKI:0.00
PC:19448     Total:44700      MisBP:0   MisRate:0.00%    MPKI:0.00
PC:f8334     Total:1      MisBP:0   MisRate:0.00%    MPKI:0.00
PC:1679e     Total:14247      MisBP:0   MisRate:0.00%    MPKI:0.00
PC:1ddf6     Total:1      MisBP:0   MisRate:0.00%    MPKI:0.00
PC:18f5c     Total:28411      MisBP:0   MisRate:0.00%    MPKI:0.00
PC:1df9e     Total:1264      MisBP:0   MisRate:0.00%    MPKI:0.00
PC:167a2     Total:14247      MisBP:0   MisRate:0.00%    MPKI:0.00
PC:19450     Total:40829      MisBP:0   MisRate:0.00%    MPKI:0.00
PC:f833c     Total:1      MisBP:0   MisRate:0.00%    MPKI:0.00
PC:18f62     Total:28411      MisBP:0   MisRate:0.00%    MPKI:0.00
PC:323e8     Total:36      MisBP:0   MisRate:0.00%    MPKI:0.00
PC:1dfa4     Total:1148      MisBP:0   MisRate:0.00%    MPKI:0.00
PC:167a6     Total:14247      MisBP:0   MisRate:0.00%    MPKI:0.00
PC:f8340     Total:1      MisBP:0   MisRate:0.00%    MPKI:0.00
PC:18f66     Total:27284      MisBP:0   MisRate:0.00%    MPKI:0.00
PC:19438     Total:47155      MisBP:0   MisRate:0.00%    MPKI:0.00
PC:1df0c     Total:4850      MisBP:0   MisRate:0.00%    MPKI:0.00
PC:230f2     Total:207843      MisBP:0   MisRate:0.00%    MPKI:0.00
PC:18ed0     Total:15285      MisBP:0   MisRate:0.00%    MPKI:0.00
PC:18ed4     Total:14607      MisBP:0   MisRate:0.00%    MPKI:0.00
PC:16718     Total:49169      MisBP:0   MisRate:0.00%    MPKI:0.00
PC:18ed8     Total:10525      MisBP:0   MisRate:0.00%    MPKI:0.00
PC:1671c     Total:48656      MisBP:0   MisRate:0.00%    MPKI:0.00
PC:1671e     Total:48656      MisBP:0   MisRate:0.00%    MPKI:0.00
PC:230fe     Total:219186      MisBP:0   MisRate:0.00%    MPKI:0.00
PC:18edc     Total:10525      MisBP:0   MisRate:0.00%    MPKI:0.00
PC:16786     Total:15014      MisBP:0   MisRate:0.00%    MPKI:0.00
PC:1678a     Total:15014      MisBP:0   MisRate:0.00%    MPKI:0.00
PC:1e1de     Total:1      MisBP:0   MisRate:0.00%    MPKI:0.00
PC:f8324     Total:1      MisBP:0   MisRate:0.00%    MPKI:0.00
PC:2316e     Total:202605      MisBP:0   MisRate:0.00%    MPKI:0.00
PC:18f4c     Total:29463      MisBP:0   MisRate:0.00%    MPKI:0.00
PC:1ddf0     Total:1      MisBP:0   MisRate:0.00%    MPKI:0.00
PC:28012     Total:132      MisBP:0   MisRate:0.00%    MPKI:0.00
PC:16790     Total:15014      MisBP:0   MisRate:0.00%    MPKI:0.00
PC:16794     Total:15014      MisBP:0   MisRate:0.00%    MPKI:0.00
PC:23174     Total:191879      MisBP:0   MisRate:0.00%    MPKI:0.00
PC:18f52     Total:29463      MisBP:0   MisRate:0.00%    MPKI:0.00
PC:323d8     Total:29      MisBP:0   MisRate:0.00%    MPKI:0.00
PC:1df94     Total:1297      MisBP:0   MisRate:0.00%    MPKI:0.00
PC:1927a     Total:40428      MisBP:0   MisRate:0.00%    MPKI:0.00
PC:19aa0     Total:23381      MisBP:0   MisRate:0.00%    MPKI:0.00
PC:1eae2     Total:1      MisBP:0   MisRate:0.00%    MPKI:0.00
PC:19254     Total:46267      MisBP:0   MisRate:0.00%    MPKI:0.00
PC:1e296     Total:89      MisBP:0   MisRate:0.00%    MPKI:0.00
PC:1925c     Total:1797      MisBP:0   MisRate:0.00%    MPKI:0.00
PC:1e29e     Total:89      MisBP:0   MisRate:0.00%    MPKI:0.00
PC:19266     Total:1748      MisBP:0   MisRate:0.00%    MPKI:0.00
PC:23164     Total:202593      MisBP:0   MisRate:0.00%    MPKI:0.00
PC:18a68     Total:292706      MisBP:0   MisRate:0.00%    MPKI:0.00
PC:412f0     Total:22      MisBP:0   MisRate:0.00%    MPKI:0.00
PC:1926c     Total:46378      MisBP:0   MisRate:0.00%    MPKI:0.00
PC:19276     Total:40453      MisBP:0   MisRate:0.00%    MPKI:0.00
PC:122a0     Total:496781      MisBP:0   MisRate:0.00%    MPKI:0.00
PC:1928a     Total:22719      MisBP:0   MisRate:0.00%    MPKI:0.00
PC:1929a     Total:8771      MisBP:0   MisRate:0.00%    MPKI:0.00
PC:1e2dc     Total:273      MisBP:0   MisRate:0.00%    MPKI:0.00
PC:1e2e4     Total:259      MisBP:0   MisRate:0.00%    MPKI:0.00
PC:192a8     Total:7988      MisBP:0   MisRate:0.00%    MPKI:0.00
PC:192b6     Total:992      MisBP:0   MisRate:0.00%    MPKI:0.00
PC:1e2f8     Total:256      MisBP:0   MisRate:0.00%    MPKI:0.00
PC:192b8     Total:8266      MisBP:0   MisRate:0.00%    MPKI:0.00
PC:1e2fa     Total:256      MisBP:0   MisRate:0.00%    MPKI:0.00
PC:192ba     Total:42335      MisBP:0   MisRate:0.00%    MPKI:0.00
PC:18e56     Total:103356      MisBP:0   MisRate:0.00%    MPKI:0.00
PC:1ead4     Total:1      MisBP:0   MisRate:0.00%    MPKI:0.00
PC:1e23a     Total:313      MisBP:0   MisRate:0.00%    MPKI:0.00
PC:191fc     Total:28937      MisBP:0   MisRate:0.00%    MPKI:0.00
PC:1e23e     Total:268      MisBP:0   MisRate:0.00%    MPKI:0.00
PC:191fe     Total:28935      MisBP:0   MisRate:0.00%    MPKI:0.00
PC:172c8     Total:20034      MisBP:0   MisRate:0.00%    MPKI:0.00
PC:12286     Total:425050      MisBP:0   MisRate:0.00%    MPKI:0.00
PC:19a86     Total:24687      MisBP:0   MisRate:0.00%    MPKI:0.00
PC:1eac8     Total:1      MisBP:0   MisRate:0.00%    MPKI:0.00
PC:1940e     Total:26909      MisBP:0   MisRate:0.00%    MPKI:0.00
PC:41c96     Total:99      MisBP:0   MisRate:0.00%    MPKI:0.00
PC:172d4     Total:413593      MisBP:0   MisRate:0.00%    MPKI:0.00
PC:19a92     Total:23387      MisBP:0   MisRate:0.00%    MPKI:0.00
PC:23078     Total:1119      MisBP:0   MisRate:0.00%    MPKI:0.00
PC:16fb2     Total:42925      MisBP:0   MisRate:0.00%    MPKI:0.00
PC:21372     Total:5      MisBP:0   MisRate:0.00%    MPKI:0.00
PC:17150     Total:104690      MisBP:0   MisRate:0.00%    MPKI:0.00
PC:172dc     Total:411826      MisBP:0   MisRate:0.00%    MPKI:0.00
PC:1229a     Total:176791      MisBP:0   MisRate:0.00%    MPKI:0.00
PC:19a9a     Total:23381      MisBP:0   MisRate:0.00%    MPKI:0.00
PC:1eadc     Total:1      MisBP:0   MisRate:0.00%    MPKI:0.00
PC:19422     Total:26203      MisBP:0   MisRate:0.00%    MPKI:0.00
PC:41caa     Total:98      MisBP:0   MisRate:0.00%    MPKI:0.00
PC:211da     Total:9916      MisBP:0   MisRate:0.00%    MPKI:0.00
PC:172e2     Total:366216      MisBP:0   MisRate:0.00%    MPKI:0.00
PC:2308e     Total:263      MisBP:0   MisRate:0.00%    MPKI:0.00
PC:18b16     Total:15457      MisBP:0   MisRate:0.00%    MPKI:0.00
PC:4139e     Total:208      MisBP:0   MisRate:0.00%    MPKI:0.00
PC:18e66     Total:91365      MisBP:0   MisRate:0.00%    MPKI:0.00
PC:23088     Total:263      MisBP:0   MisRate:0.00%    MPKI:0.00
PC:19190     Total:85552      MisBP:0   MisRate:0.00%    MPKI:0.00
PC:1e1d2     Total:1      MisBP:0   MisRate:0.00%    MPKI:0.00
PC:18b18     Total:46371      MisBP:0   MisRate:0.00%    MPKI:0.00
PC:413a0     Total:208      MisBP:0   MisRate:0.00%    MPKI:0.00
PC:169d4     Total:1552      MisBP:0   MisRate:0.00%    MPKI:0.00
PC:19192     Total:85552      MisBP:0   MisRate:0.00%    MPKI:0.00
PC:413a2     Total:208      MisBP:0   MisRate:0.00%    MPKI:0.00
PC:18e6c     Total:145519      MisBP:0   MisRate:0.00%    MPKI:0.00
PC:1e1d0     Total:1      MisBP:0   MisRate:0.00%    MPKI:0.00
PC:1900a     Total:2480      MisBP:0   MisRate:0.00%    MPKI:0.00
PC:19196     Total:85552      MisBP:0   MisRate:0.00%    MPKI:0.00
PC:1e1d8     Total:1      MisBP:0   MisRate:0.00%    MPKI:0.00
PC:169dc     Total:1552      MisBP:0   MisRate:0.00%    MPKI:0.00
PC:18e70     Total:145481      MisBP:0   MisRate:0.00%    MPKI:0.00
PC:23092     Total:263      MisBP:0   MisRate:0.00%    MPKI:0.00
PC:1900e     Total:2480      MisBP:0   MisRate:0.00%    MPKI:0.00
PC:1919a     Total:85153      MisBP:0   MisRate:0.00%    MPKI:0.00
PC:1e1dc     Total:1      MisBP:0   MisRate:0.00%    MPKI:0.00
PC:18e72     Total:28010      MisBP:0   MisRate:0.00%    MPKI:0.00
PC:23094     Total:263      MisBP:0   MisRate:0.00%    MPKI:0.00
PC:18ffa     Total:1663      MisBP:0   MisRate:0.00%    MPKI:0.00
PC:1e036     Total:141      MisBP:0   MisRate:0.00%    MPKI:0.00
PC:18ff4     Total:1663      MisBP:0   MisRate:0.00%    MPKI:0.00
PC:1e1c2     Total:1      MisBP:0   MisRate:0.00%    MPKI:0.00
PC:18e5a     Total:103344      MisBP:0   MisRate:0.00%    MPKI:0.00
PC:2307c     Total:1119      MisBP:0   MisRate:0.00%    MPKI:0.00
PC:19184     Total:104033      MisBP:0   MisRate:0.00%    MPKI:0.00
PC:18b0c     Total:32049      MisBP:0   MisRate:0.00%    MPKI:0.00
PC:41394     Total:215      MisBP:0   MisRate:0.00%    MPKI:0.00
PC:18e5c     Total:103344      MisBP:0   MisRate:0.00%    MPKI:0.00
PC:2307e     Total:263      MisBP:0   MisRate:0.00%    MPKI:0.00
PC:1e03c     Total:50      MisBP:0   MisRate:0.00%    MPKI:0.00
PC:323ec     Total:36      MisBP:0   MisRate:0.00%    MPKI:0.00
PC:1e1c8     Total:1      MisBP:0   MisRate:0.00%    MPKI:0.00
PC:18b0e     Total:10669      MisBP:0   MisRate:0.00%    MPKI:0.00
PC:41396     Total:215      MisBP:0   MisRate:0.00%    MPKI:0.00
PC:18e60     Total:103340      MisBP:0   MisRate:0.00%    MPKI:0.00
PC:23082     Total:263      MisBP:0   MisRate:0.00%    MPKI:0.00
PC:18ffe     Total:1608      MisBP:0   MisRate:0.00%    MPKI:0.00
PC:1918a     Total:85552      MisBP:0   MisRate:0.00%    MPKI:0.00
PC:1e1cc     Total:1      MisBP:0   MisRate:0.00%    MPKI:0.00
PC:18b12     Total:10669      MisBP:0   MisRate:0.00%    MPKI:0.00
PC:4139a     Total:208      MisBP:0   MisRate:0.00%    MPKI:0.00
PC:1918e     Total:85552      MisBP:0   MisRate:0.00%    MPKI:0.00
PC:20ebe     Total:11718      MisBP:0   MisRate:0.00%    MPKI:0.00
PC:1e628     Total:6      MisBP:0   MisRate:0.00%    MPKI:0.00
PC:195ea     Total:31924      MisBP:0   MisRate:0.00%    MPKI:0.00
PC:1e62c     Total:37      MisBP:0   MisRate:0.00%    MPKI:0.00
PC:195ee     Total:31924      MisBP:0   MisRate:0.00%    MPKI:0.00
PC:1e630     Total:37      MisBP:0   MisRate:0.00%    MPKI:0.00
PC:16c94     Total:1153      MisBP:0   MisRate:0.00%    MPKI:0.00
PC:20eb6     Total:12059      MisBP:0   MisRate:0.00%    MPKI:0.00
PC:1e632     Total:37      MisBP:0   MisRate:0.00%    MPKI:0.00
PC:195f4     Total:10314      MisBP:0   MisRate:0.00%    MPKI:0.00
PC:16c9a     Total:1153      MisBP:0   MisRate:0.00%    MPKI:0.00
PC:195f6     Total:10314      MisBP:0   MisRate:0.00%    MPKI:0.00
PC:1e638     Total:37      MisBP:0   MisRate:0.00%    MPKI:0.00
PC:195e6     Total:31924      MisBP:0   MisRate:0.00%    MPKI:0.00
PC:195f8     Total:10314      MisBP:0   MisRate:0.00%    MPKI:0.00
PC:195fa     Total:17628      MisBP:0   MisRate:0.00%    MPKI:0.00
PC:1e63c     Total:37      MisBP:0   MisRate:0.00%    MPKI:0.00
PC:1990c     Total:25563      MisBP:0   MisRate:0.00%    MPKI:0.00
PC:28b70     Total:1      MisBP:0   MisRate:0.00%    MPKI:0.00
PC:1e94e     Total:2      MisBP:0   MisRate:0.00%    MPKI:0.00
PC:1990e     Total:25563      MisBP:0   MisRate:0.00%    MPKI:0.00
PC:28b72     Total:1      MisBP:0   MisRate:0.00%    MPKI:0.00
PC:1e950     Total:2      MisBP:0   MisRate:0.00%    MPKI:0.00
PC:19910     Total:25563      MisBP:0   MisRate:0.00%    MPKI:0.00
PC:1e952     Total:2      MisBP:0   MisRate:0.00%    MPKI:0.00
PC:195da     Total:32224      MisBP:0   MisRate:0.00%    MPKI:0.00
PC:195d4     Total:32224      MisBP:0   MisRate:0.00%    MPKI:0.00
PC:16e18     Total:65743      MisBP:0   MisRate:0.00%    MPKI:0.00
PC:16c7a     Total:1194      MisBP:0   MisRate:0.00%    MPKI:0.00
PC:20e9c     Total:903      MisBP:0   MisRate:0.00%    MPKI:0.00
PC:195d6     Total:32224      MisBP:0   MisRate:0.00%    MPKI:0.00
PC:1e618     Total:44      MisBP:0   MisRate:0.00%    MPKI:0.00
PC:195d8     Total:32224      MisBP:0   MisRate:0.00%    MPKI:0.00
PC:1e61a     Total:43      MisBP:0   MisRate:0.00%    MPKI:0.00
PC:2103e     Total:18386      MisBP:0   MisRate:0.00%    MPKI:0.00
PC:16e1c     Total:65743      MisBP:0   MisRate:0.00%    MPKI:0.00
PC:16c7e     Total:1156      MisBP:0   MisRate:0.00%    MPKI:0.00
PC:20ea0     Total:903      MisBP:0   MisRate:0.00%    MPKI:0.00
PC:21376     Total:5      MisBP:0   MisRate:0.00%    MPKI:0.00
PC:195de     Total:32224      MisBP:0   MisRate:0.00%    MPKI:0.00
PC:1e620     Total:11      MisBP:0   MisRate:0.00%    MPKI:0.00
PC:21044     Total:18382      MisBP:0   MisRate:0.00%    MPKI:0.00
PC:16e22     Total:65761      MisBP:0   MisRate:0.00%    MPKI:0.00
PC:195e0     Total:32224      MisBP:0   MisRate:0.00%    MPKI:0.00
PC:195e2     Total:32224      MisBP:0   MisRate:0.00%    MPKI:0.00
PC:1e624     Total:6      MisBP:0   MisRate:0.00%    MPKI:0.00
PC:21048     Total:18381      MisBP:0   MisRate:0.00%    MPKI:0.00
PC:16e26     Total:38137      MisBP:0   MisRate:0.00%    MPKI:0.00
PC:195e4     Total:31924      MisBP:0   MisRate:0.00%    MPKI:0.00
PC:1e626     Total:6      MisBP:0   MisRate:0.00%    MPKI:0.00
PC:20ecc     Total:13430      MisBP:0   MisRate:0.00%    MPKI:0.00
PC:1992c     Total:792      MisBP:0   MisRate:0.00%    MPKI:0.00
PC:1992e     Total:776      MisBP:0   MisRate:0.00%    MPKI:0.00
PC:19932     Total:11764      MisBP:0   MisRate:0.00%    MPKI:0.00
PC:20ec4     Total:11667      MisBP:0   MisRate:0.00%    MPKI:0.00
PC:195fe     Total:16377      MisBP:0   MisRate:0.00%    MPKI:0.00
PC:1e640     Total:27      MisBP:0   MisRate:0.00%    MPKI:0.00
PC:16e44     Total:2883      MisBP:0   MisRate:0.00%    MPKI:0.00
PC:16ca6     Total:1153      MisBP:0   MisRate:0.00%    MPKI:0.00
PC:20ec8     Total:11667      MisBP:0   MisRate:0.00%    MPKI:0.00
PC:19602     Total:16377      MisBP:0   MisRate:0.00%    MPKI:0.00
PC:16e48     Total:2883      MisBP:0   MisRate:0.00%    MPKI:0.00
PC:16caa     Total:1153      MisBP:0   MisRate:0.00%    MPKI:0.00
PC:19928     Total:792      MisBP:0   MisRate:0.00%    MPKI:0.00
PC:1e648     Total:4      MisBP:0   MisRate:0.00%    MPKI:0.00
PC:16b32     Total:53      MisBP:0   MisRate:0.00%    MPKI:0.00
PC:20d54     Total:45402      MisBP:0   MisRate:0.00%    MPKI:0.00
PC:20ee0     Total:13355      MisBP:0   MisRate:0.00%    MPKI:0.00
PC:1961a     Total:16094      MisBP:0   MisRate:0.00%    MPKI:0.00
PC:1e65c     Total:4      MisBP:0   MisRate:0.00%    MPKI:0.00
PC:19988     Total:22798      MisBP:0   MisRate:0.00%    MPKI:0.00
PC:1998c     Total:22798      MisBP:0   MisRate:0.00%    MPKI:0.00
PC:14ebe     Total:12885      MisBP:0   MisRate:0.00%    MPKI:0.00
PC:14ec2     Total:12885      MisBP:0   MisRate:0.00%    MPKI:0.00
PC:14ec8     Total:4060      MisBP:0   MisRate:0.00%    MPKI:0.00
PC:1991c     Total:792      MisBP:0   MisRate:0.00%    MPKI:0.00
PC:17154     Total:1328724      MisBP:0   MisRate:0.00%    MPKI:0.00
PC:19912     Total:25563      MisBP:0   MisRate:0.00%    MPKI:0.00
PC:28b76     Total:1      MisBP:0   MisRate:0.00%    MPKI:0.00
PC:1e954     Total:2      MisBP:0   MisRate:0.00%    MPKI:0.00
PC:28b78     Total:1      MisBP:0   MisRate:0.00%    MPKI:0.00
PC:1e956     Total:2      MisBP:0   MisRate:0.00%    MPKI:0.00
PC:19918     Total:8767      MisBP:0   MisRate:0.00%    MPKI:0.00
PC:1e95a     Total:2      MisBP:0   MisRate:0.00%    MPKI:0.00
PC:1991a     Total:792      MisBP:0   MisRate:0.00%    MPKI:0.00
PC:28b7e     Total:1      MisBP:0   MisRate:0.00%    MPKI:0.00
PC:1e95c     Total:2      MisBP:0   MisRate:0.00%    MPKI:0.00
PC:20e9a     Total:903      MisBP:0   MisRate:0.00%    MPKI:0.00
PC:1e95e     Total:2      MisBP:0   MisRate:0.00%    MPKI:0.00
PC:21382     Total:2      MisBP:0   MisRate:0.00%    MPKI:0.00
PC:17160     Total:44970      MisBP:0   MisRate:0.00%    MPKI:0.00
PC:1991e     Total:792      MisBP:0   MisRate:0.00%    MPKI:0.00
PC:28b82     Total:1      MisBP:0   MisRate:0.00%    MPKI:0.00
PC:1e960     Total:2      MisBP:0   MisRate:0.00%    MPKI:0.00
PC:19920     Total:792      MisBP:0   MisRate:0.00%    MPKI:0.00
PC:28b84     Total:2      MisBP:0   MisRate:0.00%    MPKI:0.00
PC:1e962     Total:2      MisBP:0   MisRate:0.00%    MPKI:0.00
PC:19922     Total:792      MisBP:0   MisRate:0.00%    MPKI:0.00
PC:19924     Total:792      MisBP:0   MisRate:0.00%    MPKI:0.00
PC:18fa2     Total:1579      MisBP:0   MisRate:0.00%    MPKI:0.00
PC:19480     Total:9544      MisBP:0   MisRate:0.00%    MPKI:0.00
PC:f836c     Total:1      MisBP:0   MisRate:0.00%    MPKI:0.00
PC:18f92     Total:30166      MisBP:0   MisRate:0.00%    MPKI:0.00
PC:1dfd4     Total:4373      MisBP:0   MisRate:0.00%    MPKI:0.00
PC:167d6     Total:26714      MisBP:0   MisRate:0.00%    MPKI:0.00
PC:f8370     Total:1      MisBP:0   MisRate:0.00%    MPKI:0.00
PC:167dc     Total:26714      MisBP:0   MisRate:0.00%    MPKI:0.00
PC:167de     Total:26714      MisBP:0   MisRate:0.00%    MPKI:0.00
PC:1948c     Total:9599      MisBP:0   MisRate:0.00%    MPKI:0.00
PC:f8378     Total:1      MisBP:0   MisRate:0.00%    MPKI:0.00
PC:167e4     Total:26714      MisBP:0   MisRate:0.00%    MPKI:0.00
PC:43a36     Total:97      MisBP:0   MisRate:0.00%    MPKI:0.00
PC:167d2     Total:26714      MisBP:0   MisRate:0.00%    MPKI:0.00
PC:32428     Total:18      MisBP:0   MisRate:0.00%    MPKI:0.00
PC:1dfe4     Total:512      MisBP:0   MisRate:0.00%    MPKI:0.00
PC:167e8     Total:183489      MisBP:0   MisRate:0.00%    MPKI:0.00
PC:18fa6     Total:1579      MisBP:0   MisRate:0.00%    MPKI:0.00
PC:167ec     Total:121076      MisBP:0   MisRate:0.00%    MPKI:0.00
PC:1dfee     Total:178      MisBP:0   MisRate:0.00%    MPKI:0.00
PC:167f6     Total:23741      MisBP:0   MisRate:0.00%    MPKI:0.00
PC:1dff8     Total:3927      MisBP:0   MisRate:0.00%    MPKI:0.00
PC:1722a     Total:47937      MisBP:0   MisRate:0.00%    MPKI:0.00
PC:17230     Total:46290      MisBP:0   MisRate:0.00%    MPKI:0.00
PC:28ab4     Total:173      MisBP:0   MisRate:0.00%    MPKI:0.00
PC:f835c     Total:1      MisBP:0   MisRate:0.00%    MPKI:0.00
PC:1dfa8     Total:1148      MisBP:0   MisRate:0.00%    MPKI:0.00
PC:167ac     Total:14247      MisBP:0   MisRate:0.00%    MPKI:0.00
PC:167b0     Total:14246      MisBP:0   MisRate:0.00%    MPKI:0.00
PC:167b6     Total:32985      MisBP:0   MisRate:0.00%    MPKI:0.00
PC:41cec     Total:2      MisBP:0   MisRate:0.00%    MPKI:0.00
PC:19464     Total:20607      MisBP:0   MisRate:0.00%    MPKI:0.00
PC:f8350     Total:1      MisBP:0   MisRate:0.00%    MPKI:0.00
PC:18f76     Total:12192      MisBP:0   MisRate:0.00%    MPKI:0.00
PC:323fc     Total:36      MisBP:0   MisRate:0.00%    MPKI:0.00
PC:1dfb8     Total:243      MisBP:0   MisRate:0.00%    MPKI:0.00
PC:167bc     Total:33155      MisBP:0   MisRate:0.00%    MPKI:0.00
PC:167c2     Total:27241      MisBP:0   MisRate:0.00%    MPKI:0.00
PC:17234     Total:46239      MisBP:0   MisRate:0.00%    MPKI:0.00
PC:167c6     Total:27242      MisBP:0   MisRate:0.00%    MPKI:0.00
PC:19474     Total:11331      MisBP:0   MisRate:0.00%    MPKI:0.00
PC:f8360     Total:1      MisBP:0   MisRate:0.00%    MPKI:0.00
PC:167c8     Total:27242      MisBP:0   MisRate:0.00%    MPKI:0.00
PC:231a8     Total:547704      MisBP:0   MisRate:0.00%    MPKI:0.00
PC:1dfc8     Total:41      MisBP:0   MisRate:0.00%    MPKI:0.00
PC:167ce     Total:27241      MisBP:0   MisRate:0.00%    MPKI:0.00
PC:1947c     Total:10112      MisBP:0   MisRate:0.00%    MPKI:0.00
PC:f8368     Total:1      MisBP:0   MisRate:0.00%    MPKI:0.00
PC:18f8c     Total:10978      MisBP:0   MisRate:0.00%    MPKI:0.00
PC:167d0     Total:27241      MisBP:0   MisRate:0.00%    MPKI:0.00
PC:21034     Total:20696      MisBP:0   MisRate:0.00%    MPKI:0.00
PC:1e606     Total:49      MisBP:0   MisRate:0.00%    MPKI:0.00
PC:195c6     Total:33515      MisBP:0   MisRate:0.00%    MPKI:0.00
PC:2102c     Total:22308      MisBP:0   MisRate:0.00%    MPKI:0.00
PC:16e0a     Total:33235      MisBP:0   MisRate:0.00%    MPKI:0.00
PC:16c6c     Total:1160      MisBP:0   MisRate:0.00%    MPKI:0.00
PC:20e8e     Total:921      MisBP:0   MisRate:0.00%    MPKI:0.00
PC:195c8     Total:33515      MisBP:0   MisRate:0.00%    MPKI:0.00
PC:1e60a     Total:49      MisBP:0   MisRate:0.00%    MPKI:0.00
PC:195ca     Total:33515      MisBP:0   MisRate:0.00%    MPKI:0.00
PC:1e60c     Total:49      MisBP:0   MisRate:0.00%    MPKI:0.00
PC:195ce     Total:33515      MisBP:0   MisRate:0.00%    MPKI:0.00
PC:1e610     Total:49      MisBP:0   MisRate:0.00%    MPKI:0.00
PC:195c4     Total:33515      MisBP:0   MisRate:0.00%    MPKI:0.00
PC:16e12     Total:33234      MisBP:0   MisRate:0.00%    MPKI:0.00
PC:16c74     Total:1195      MisBP:0   MisRate:0.00%    MPKI:0.00
PC:20e96     Total:903      MisBP:0   MisRate:0.00%    MPKI:0.00
PC:195d0     Total:33515      MisBP:0   MisRate:0.00%    MPKI:0.00
PC:1e612     Total:49      MisBP:0   MisRate:0.00%    MPKI:0.00
PC:20e98     Total:903      MisBP:0   MisRate:0.00%    MPKI:0.00
PC:195d2     Total:31950      MisBP:0   MisRate:0.00%    MPKI:0.00
PC:1e614     Total:49      MisBP:0   MisRate:0.00%    MPKI:0.00
PC:21038     Total:21499      MisBP:0   MisRate:0.00%    MPKI:0.00
PC:16e16     Total:65743      MisBP:0   MisRate:0.00%    MPKI:0.00
PC:16c78     Total:1194      MisBP:0   MisRate:0.00%    MPKI:0.00
PC:17240     Total:72403      MisBP:0   MisRate:0.00%    MPKI:0.00
PC:212b8     Total:1604      MisBP:0   MisRate:0.00%    MPKI:0.00
PC:199f2     Total:1029      MisBP:0   MisRate:0.00%    MPKI:0.00
PC:28ab8     Total:164      MisBP:0   MisRate:0.00%    MPKI:0.00
PC:41c02     Total:52      MisBP:0   MisRate:0.00%    MPKI:0.00
PC:17238     Total:46238      MisBP:0   MisRate:0.00%    MPKI:0.00
PC:212bc     Total:4812      MisBP:0   MisRate:0.00%    MPKI:0.00
PC:28abc     Total:163      MisBP:0   MisRate:0.00%    MPKI:0.00
PC:41c06     Total:52      MisBP:0   MisRate:0.00%    MPKI:0.00
PC:1723c     Total:46232      MisBP:0   MisRate:0.00%    MPKI:0.00
PC:199fa     Total:11574      MisBP:0   MisRate:0.00%    MPKI:0.00
PC:28ac0     Total:130      MisBP:0   MisRate:0.00%    MPKI:0.00
PC:16a3a     Total:1      MisBP:0   MisRate:0.00%    MPKI:0.00
PC:212c4     Total:1516      MisBP:0   MisRate:0.00%    MPKI:0.00
PC:199fe     Total:11574      MisBP:0   MisRate:0.00%    MPKI:0.00
PC:20e86     Total:921      MisBP:0   MisRate:0.00%    MPKI:0.00
PC:195c0     Total:33515      MisBP:0   MisRate:0.00%    MPKI:0.00
PC:1e602     Total:49      MisBP:0   MisRate:0.00%    MPKI:0.00
PC:21026     Total:22308      MisBP:0   MisRate:0.00%    MPKI:0.00
PC:16c66     Total:1124      MisBP:0   MisRate:0.00%    MPKI:0.00
PC:20e88     Total:921      MisBP:0   MisRate:0.00%    MPKI:0.00
PC:195c2     Total:33515      MisBP:0   MisRate:0.00%    MPKI:0.00
PC:16e06     Total:33235      MisBP:0   MisRate:0.00%    MPKI:0.00
PC:20e8a     Total:921      MisBP:0   MisRate:0.00%    MPKI:0.00
PC:200e4     Total:52076      MisBP:0   MisRate:0.00%    MPKI:0.00
PC:18952     Total:73662      MisBP:0   MisRate:0.00%    MPKI:0.00
PC:1d994     Total:10836      MisBP:0   MisRate:0.00%    MPKI:0.00
PC:2cd98     Total:315      MisBP:0   MisRate:0.00%    MPKI:0.00
PC:18954     Total:73662      MisBP:0   MisRate:0.00%    MPKI:0.00
PC:1d996     Total:10759      MisBP:0   MisRate:0.00%    MPKI:0.00
PC:19bbe     Total:1      MisBP:0   MisRate:0.00%    MPKI:0.00
PC:1d99a     Total:10759      MisBP:0   MisRate:0.00%    MPKI:0.00
PC:1895c     Total:73662      MisBP:0   MisRate:0.00%    MPKI:0.00
PC:2cdbe     Total:54      MisBP:0   MisRate:0.00%    MPKI:0.00
PC:1897a     Total:72020      MisBP:0   MisRate:0.00%    MPKI:0.00
PC:200e0     Total:52076      MisBP:0   MisRate:0.00%    MPKI:0.00
PC:15ec2     Total:142      MisBP:0   MisRate:0.00%    MPKI:0.00
PC:19bb8     Total:1      MisBP:0   MisRate:0.00%    MPKI:0.00
PC:16060     Total:65      MisBP:0   MisRate:0.00%    MPKI:0.00
PC:15ec8     Total:142      MisBP:0   MisRate:0.00%    MPKI:0.00
PC:200ea     Total:52075      MisBP:0   MisRate:0.00%    MPKI:0.00
PC:20288     Total:14686      MisBP:0   MisRate:0.00%    MPKI:0.00
PC:16066     Total:4738      MisBP:0   MisRate:0.00%    MPKI:0.00
PC:1606a     Total:4738      MisBP:0   MisRate:0.00%    MPKI:0.00
PC:189cc     Total:3291      MisBP:0   MisRate:0.00%    MPKI:0.00
PC:202ae     Total:14571      MisBP:0   MisRate:0.00%    MPKI:0.00
PC:1608c     Total:60      MisBP:0   MisRate:0.00%    MPKI:0.00
PC:189d6     Total:125518      MisBP:0   MisRate:0.00%    MPKI:0.00
PC:15efe     Total:1836      MisBP:0   MisRate:0.00%    MPKI:0.00
PC:1d986     Total:10836      MisBP:0   MisRate:0.00%    MPKI:0.00
PC:1def0     Total:8224      MisBP:0   MisRate:0.00%    MPKI:0.00
PC:1def4     Total:8218      MisBP:0   MisRate:0.00%    MPKI:0.00
PC:166f6     Total:51750      MisBP:0   MisRate:0.00%    MPKI:0.00
PC:1def6     Total:8256      MisBP:0   MisRate:0.00%    MPKI:0.00
PC:1def8     Total:8255      MisBP:0   MisRate:0.00%    MPKI:0.00
PC:166fa     Total:51750      MisBP:0   MisRate:0.00%    MPKI:0.00
PC:18eb8     Total:15865      MisBP:0   MisRate:0.00%    MPKI:0.00
PC:1defa     Total:8234      MisBP:0   MisRate:0.00%    MPKI:0.00
PC:166fc     Total:51705      MisBP:0   MisRate:0.00%    MPKI:0.00
PC:1defc     Total:8230      MisBP:0   MisRate:0.00%    MPKI:0.00
PC:16700     Total:49170      MisBP:0   MisRate:0.00%    MPKI:0.00
PC:18944     Total:75814      MisBP:0   MisRate:0.00%    MPKI:0.00
PC:20120     Total:56785      MisBP:0   MisRate:0.00%    MPKI:0.00
PC:18948     Total:454884      MisBP:0   MisRate:0.00%    MPKI:0.00
PC:19bb2     Total:1      MisBP:0   MisRate:0.00%    MPKI:0.00
PC:1894a     Total:75814      MisBP:0   MisRate:0.00%    MPKI:0.00
PC:1d98c     Total:10836      MisBP:0   MisRate:0.00%    MPKI:0.00
PC:173f6     Total:25559      MisBP:0   MisRate:0.00%    MPKI:0.00
PC:19bb4     Total:1      MisBP:0   MisRate:0.00%    MPKI:0.00
PC:1894e     Total:73662      MisBP:0   MisRate:0.00%    MPKI:0.00
PC:1d990     Total:10836      MisBP:0   MisRate:0.00%    MPKI:0.00
PC:173fa     Total:25670      MisBP:0   MisRate:0.00%    MPKI:0.00
PC:30a1e     Total:7      MisBP:0   MisRate:0.00%    MPKI:0.00
PC:123b8     Total:137606      MisBP:0   MisRate:0.00%    MPKI:0.00
PC:18e2a     Total:783434      MisBP:0   MisRate:0.00%    MPKI:0.00
PC:18e22     Total:730911      MisBP:0   MisRate:0.00%    MPKI:0.00
PC:23044     Total:4311      MisBP:0   MisRate:0.00%    MPKI:0.00
PC:32446     Total:13      MisBP:0   MisRate:0.00%    MPKI:0.00
PC:1e002     Total:3844      MisBP:0   MisRate:0.00%    MPKI:0.00
PC:18fc0     Total:720      MisBP:0   MisRate:0.00%    MPKI:0.00
PC:1914c     Total:156734      MisBP:0   MisRate:0.00%    MPKI:0.00
PC:1e18e     Total:656      MisBP:0   MisRate:0.00%    MPKI:0.00
PC:19150     Total:156734      MisBP:0   MisRate:0.00%    MPKI:0.00
PC:1e192     Total:656      MisBP:0   MisRate:0.00%    MPKI:0.00
PC:18ad8     Total:301344      MisBP:0   MisRate:0.00%    MPKI:0.00
PC:41360     Total:57      MisBP:0   MisRate:0.00%    MPKI:0.00
PC:19152     Total:156734      MisBP:0   MisRate:0.00%    MPKI:0.00
PC:1914a     Total:156734      MisBP:0   MisRate:0.00%    MPKI:0.00
PC:2304c     Total:4267      MisBP:0   MisRate:0.00%    MPKI:0.00
PC:18fc8     Total:720      MisBP:0   MisRate:0.00%    MPKI:0.00
PC:19154     Total:155475      MisBP:0   MisRate:0.00%    MPKI:0.00
PC:1e196     Total:447      MisBP:0   MisRate:0.00%    MPKI:0.00
PC:18adc     Total:904008      MisBP:0   MisRate:0.00%    MPKI:0.00
PC:41364     Total:57      MisBP:0   MisRate:0.00%    MPKI:0.00
PC:19156     Total:156042      MisBP:0   MisRate:0.00%    MPKI:0.00
PC:1e198     Total:447      MisBP:0   MisRate:0.00%    MPKI:0.00
PC:19158     Total:156042      MisBP:0   MisRate:0.00%    MPKI:0.00
PC:18ae0     Total:297257      MisBP:0   MisRate:0.00%    MPKI:0.00
PC:41368     Total:57      MisBP:0   MisRate:0.00%    MPKI:0.00
PC:19142     Total:156734      MisBP:0   MisRate:0.00%    MPKI:0.00
PC:202c4     Total:42929      MisBP:0   MisRate:0.00%    MPKI:0.00
PC:160a2     Total:61      MisBP:0   MisRate:0.00%    MPKI:0.00
PC:41274     Total:1      MisBP:0   MisRate:0.00%    MPKI:0.00
PC:189ec     Total:95995      MisBP:0   MisRate:0.00%    MPKI:0.00
PC:166c2     Total:125899      MisBP:0   MisRate:0.00%    MPKI:0.00
PC:1dec2     Total:7540      MisBP:0   MisRate:0.00%    MPKI:0.00
PC:18e16     Total:731993      MisBP:0   MisRate:0.00%    MPKI:0.00
PC:23038     Total:9458      MisBP:0   MisRate:0.00%    MPKI:0.00
PC:18fb4     Total:1572      MisBP:0   MisRate:0.00%    MPKI:0.00
PC:19140     Total:156734      MisBP:0   MisRate:0.00%    MPKI:0.00
PC:1e182     Total:657      MisBP:0   MisRate:0.00%    MPKI:0.00
PC:18eae     Total:52295      MisBP:0   MisRate:0.00%    MPKI:0.00
PC:18e1a     Total:730917      MisBP:0   MisRate:0.00%    MPKI:0.00
PC:2303c     Total:9458      MisBP:0   MisRate:0.00%    MPKI:0.00
PC:3243e     Total:13      MisBP:0   MisRate:0.00%    MPKI:0.00
PC:1dffa     Total:3927      MisBP:0   MisRate:0.00%    MPKI:0.00
PC:19144     Total:156734      MisBP:0   MisRate:0.00%    MPKI:0.00
PC:1e186     Total:656      MisBP:0   MisRate:0.00%    MPKI:0.00
PC:19148     Total:156734      MisBP:0   MisRate:0.00%    MPKI:0.00
PC:1e18a     Total:656      MisBP:0   MisRate:0.00%    MPKI:0.00
PC:23042     Total:4311      MisBP:0   MisRate:0.00%    MPKI:0.00
PC:18fbe     Total:949      MisBP:0   MisRate:0.00%    MPKI:0.00
PC:1e000     Total:3844      MisBP:0   MisRate:0.00%    MPKI:0.00
PC:187d0     Total:1752761      MisBP:0   MisRate:0.00%    MPKI:0.00
PC:2a11a     Total:41      MisBP:0   MisRate:0.00%    MPKI:0.00
PC:1fef8     Total:360327      MisBP:0   MisRate:0.00%    MPKI:0.00
PC:15e74     Total:3562      MisBP:0   MisRate:0.00%    MPKI:0.00
PC:187be     Total:339444      MisBP:0   MisRate:0.00%    MPKI:0.00
PC:1d800     Total:16259      MisBP:0   MisRate:0.00%    MPKI:0.00
PC:187c0     Total:303296      MisBP:0   MisRate:0.00%    MPKI:0.00
PC:187c4     Total:303296      MisBP:0   MisRate:0.00%    MPKI:0.00
PC:1d806     Total:14890      MisBP:0   MisRate:0.00%    MPKI:0.00
PC:2a122     Total:15      MisBP:0   MisRate:0.00%    MPKI:0.00
PC:1ff00     Total:328033      MisBP:0   MisRate:0.00%    MPKI:0.00
PC:1d808     Total:14890      MisBP:0   MisRate:0.00%    MPKI:0.00
PC:187c8     Total:259842      MisBP:0   MisRate:0.00%    MPKI:0.00
PC:1d7fc     Total:146      MisBP:0   MisRate:0.00%    MPKI:0.00
PC:1d812     Total:14465      MisBP:0   MisRate:0.00%    MPKI:0.00
PC:2a130     Total:2      MisBP:0   MisRate:0.00%    MPKI:0.00
PC:1d816     Total:14465      MisBP:0   MisRate:0.00%    MPKI:0.00
PC:187e0     Total:98164      MisBP:0   MisRate:0.00%    MPKI:0.00
PC:200be     Total:60265      MisBP:0   MisRate:0.00%    MPKI:0.00
PC:15e9c     Total:9584      MisBP:0   MisRate:0.00%    MPKI:0.00
PC:187e6     Total:972314      MisBP:0   MisRate:0.00%    MPKI:0.00
PC:1d828     Total:14358      MisBP:0   MisRate:0.00%    MPKI:0.00
PC:15d3c     Total:633      MisBP:0   MisRate:0.00%    MPKI:0.00
PC:1ff5e     Total:97209      MisBP:0   MisRate:0.00%    MPKI:0.00
PC:18824     Total:76035      MisBP:0   MisRate:0.00%    MPKI:0.00
PC:187b0     Total:48883      MisBP:0   MisRate:0.00%    MPKI:0.00
PC:18796     Total:49968      MisBP:0   MisRate:0.00%    MPKI:0.00
PC:1d7d8     Total:1      MisBP:0   MisRate:0.00%    MPKI:0.00
PC:18798     Total:49968      MisBP:0   MisRate:0.00%    MPKI:0.00
PC:1d7da     Total:3208      MisBP:0   MisRate:0.00%    MPKI:0.00
PC:1879c     Total:48883      MisBP:0   MisRate:0.00%    MPKI:0.00
PC:1d7de     Total:3207      MisBP:0   MisRate:0.00%    MPKI:0.00
PC:187a0     Total:48883      MisBP:0   MisRate:0.00%    MPKI:0.00
PC:187a4     Total:48883      MisBP:0   MisRate:0.00%    MPKI:0.00
PC:1d7e6     Total:5838      MisBP:0   MisRate:0.00%    MPKI:0.00
PC:187a8     Total:48883      MisBP:0   MisRate:0.00%    MPKI:0.00
PC:1d7ea     Total:5837      MisBP:0   MisRate:0.00%    MPKI:0.00
PC:187ac     Total:48883      MisBP:0   MisRate:0.00%    MPKI:0.00
PC:1d866     Total:13566      MisBP:0   MisRate:0.00%    MPKI:0.00
PC:1d7f2     Total:5810      MisBP:0   MisRate:0.00%    MPKI:0.00
PC:187b2     Total:48883      MisBP:0   MisRate:0.00%    MPKI:0.00
PC:1d7f4     Total:190      MisBP:0   MisRate:0.00%    MPKI:0.00
PC:2a112     Total:47      MisBP:0   MisRate:0.00%    MPKI:0.00
PC:1fef0     Total:722729      MisBP:0   MisRate:0.00%    MPKI:0.00
PC:15e6c     Total:3064      MisBP:0   MisRate:0.00%    MPKI:0.00
PC:187b6     Total:48883      MisBP:0   MisRate:0.00%    MPKI:0.00
PC:1d7f8     Total:189      MisBP:0   MisRate:0.00%    MPKI:0.00
PC:1fef4     Total:360817      MisBP:0   MisRate:0.00%    MPKI:0.00
PC:15e70     Total:3064      MisBP:0   MisRate:0.00%    MPKI:0.00
PC:187ba     Total:678890      MisBP:0   MisRate:0.00%    MPKI:0.00
PC:230c2     Total:57506      MisBP:0   MisRate:0.00%    MPKI:0.00
PC:1ded4     Total:8298      MisBP:0   MisRate:0.00%    MPKI:0.00
PC:166d6     Total:179333      MisBP:0   MisRate:0.00%    MPKI:0.00
PC:18e94     Total:55357      MisBP:0   MisRate:0.00%    MPKI:0.00
PC:1ded8     Total:8297      MisBP:0   MisRate:0.00%    MPKI:0.00
PC:166da     Total:179333      MisBP:0   MisRate:0.00%    MPKI:0.00
PC:18e98     Total:55357      MisBP:0   MisRate:0.00%    MPKI:0.00
PC:1dedc     Total:8306      MisBP:0   MisRate:0.00%    MPKI:0.00
PC:166de     Total:179331      MisBP:0   MisRate:0.00%    MPKI:0.00
PC:1dede     Total:8306      MisBP:0   MisRate:0.00%    MPKI:0.00
PC:18e9e     Total:53341      MisBP:0   MisRate:0.00%    MPKI:0.00
PC:1dee0     Total:8289      MisBP:0   MisRate:0.00%    MPKI:0.00
PC:166e2     Total:52857      MisBP:0   MisRate:0.00%    MPKI:0.00
PC:18e92     Total:55357      MisBP:0   MisRate:0.00%    MPKI:0.00
PC:18ea0     Total:53341      MisBP:0   MisRate:0.00%    MPKI:0.00
PC:1dee2     Total:8284      MisBP:0   MisRate:0.00%    MPKI:0.00
PC:1dee4     Total:8281      MisBP:0   MisRate:0.00%    MPKI:0.00
PC:166e6     Total:52857      MisBP:0   MisRate:0.00%    MPKI:0.00
PC:166ea     Total:52857      MisBP:0   MisRate:0.00%    MPKI:0.00
PC:18ea8     Total:53751      MisBP:0   MisRate:0.00%    MPKI:0.00
PC:1deea     Total:8246      MisBP:0   MisRate:0.00%    MPKI:0.00
PC:166ec     Total:51750      MisBP:0   MisRate:0.00%    MPKI:0.00
PC:230cc     Total:139247      MisBP:0   MisRate:0.00%    MPKI:0.00
PC:18eaa     Total:53751      MisBP:0   MisRate:0.00%    MPKI:0.00
PC:1deec     Total:8245      MisBP:0   MisRate:0.00%    MPKI:0.00
PC:230a8     Total:37733      MisBP:0   MisRate:0.00%    MPKI:0.00
PC:172d0     Total:413595      MisBP:0   MisRate:0.00%    MPKI:0.00
PC:19a8e     Total:24687      MisBP:0   MisRate:0.00%    MPKI:0.00
PC:1ead0     Total:1      MisBP:0   MisRate:0.00%    MPKI:0.00
PC:19416     Total:26240      MisBP:0   MisRate:0.00%    MPKI:0.00
PC:41c9e     Total:99      MisBP:0   MisRate:0.00%    MPKI:0.00
PC:230a4     Total:173      MisBP:0   MisRate:0.00%    MPKI:0.00
PC:18e82     Total:29437      MisBP:0   MisRate:0.00%    MPKI:0.00
PC:166c6     Total:125899      MisBP:0   MisRate:0.00%    MPKI:0.00
PC:18e84     Total:29437      MisBP:0   MisRate:0.00%    MPKI:0.00
PC:1dec6     Total:7540      MisBP:0   MisRate:0.00%    MPKI:0.00
PC:166c8     Total:125899      MisBP:0   MisRate:0.00%    MPKI:0.00
PC:141de     Total:41078      MisBP:0   MisRate:0.00%    MPKI:0.00
PC:18e86     Total:29437      MisBP:0   MisRate:0.00%    MPKI:0.00
PC:18e88     Total:29437      MisBP:0   MisRate:0.00%    MPKI:0.00
PC:1deca     Total:7535      MisBP:0   MisRate:0.00%    MPKI:0.00
PC:166cc     Total:125899      MisBP:0   MisRate:0.00%    MPKI:0.00
PC:230ac     Total:37732      MisBP:0   MisRate:0.00%    MPKI:0.00
PC:18e8a     Total:55358      MisBP:0   MisRate:0.00%    MPKI:0.00
PC:166ce     Total:871687      MisBP:0   MisRate:0.00%    MPKI:0.00
PC:18e8e     Total:55358      MisBP:0   MisRate:0.00%    MPKI:0.00
PC:166d2     Total:179333      MisBP:0   MisRate:0.00%    MPKI:0.00
PC:1ded2     Total:8307      MisBP:0   MisRate:0.00%    MPKI:0.00
PC:230b4     Total:37711      MisBP:0   MisRate:0.00%    MPKI:0.00
PC:18ea2     Total:53340      MisBP:0   MisRate:0.00%    MPKI:0.00
PC:16a08     Total:1363      MisBP:0   MisRate:0.00%    MPKI:0.00
PC:18e9c     Total:53342      MisBP:0   MisRate:0.00%    MPKI:0.00
PC:230be     Total:57506      MisBP:0   MisRate:0.00%    MPKI:0.00
PC:1903a     Total:1900      MisBP:0   MisRate:0.00%    MPKI:0.00
PC:189c2     Total:138607      MisBP:0   MisRate:0.00%    MPKI:0.00
PC:4124a     Total:1      MisBP:0   MisRate:0.00%    MPKI:0.00
PC:191c6     Total:51264      MisBP:0   MisRate:0.00%    MPKI:0.00
PC:413d6     Total:1      MisBP:0   MisRate:0.00%    MPKI:0.00
PC:2ae50     Total:5      MisBP:0   MisRate:0.00%    MPKI:0.00
PC:16a0c     Total:1363      MisBP:0   MisRate:0.00%    MPKI:0.00
PC:191ca     Total:51264      MisBP:0   MisRate:0.00%    MPKI:0.00
PC:413da     Total:1      MisBP:0   MisRate:0.00%    MPKI:0.00
PC:2ae4c     Total:2      MisBP:0   MisRate:0.00%    MPKI:0.00
PC:230c4     Total:57506      MisBP:0   MisRate:0.00%    MPKI:0.00
PC:189c8     Total:138607      MisBP:0   MisRate:0.00%    MPKI:0.00
PC:41250     Total:1      MisBP:0   MisRate:0.00%    MPKI:0.00
PC:413dc     Total:1      MisBP:0   MisRate:0.00%    MPKI:0.00
PC:2ae56     Total:5      MisBP:0   MisRate:0.00%    MPKI:0.00
PC:16a12     Total:1363      MisBP:0   MisRate:0.00%    MPKI:0.00
PC:191d0     Total:51120      MisBP:0   MisRate:0.00%    MPKI:0.00
PC:413e0     Total:1      MisBP:0   MisRate:0.00%    MPKI:0.00
PC:191d2     Total:51119      MisBP:0   MisRate:0.00%    MPKI:0.00
PC:1e214     Total:326      MisBP:0   MisRate:0.00%    MPKI:0.00
PC:16a16     Total:1363      MisBP:0   MisRate:0.00%    MPKI:0.00
PC:413ca     Total:292      MisBP:0   MisRate:0.00%    MPKI:0.00
PC:1e5b4     Total:44      MisBP:0   MisRate:0.00%    MPKI:0.00
PC:19574     Total:2536      MisBP:0   MisRate:0.00%    MPKI:0.00
PC:1e5b6     Total:44      MisBP:0   MisRate:0.00%    MPKI:0.00
PC:16db8     Total:144630      MisBP:0   MisRate:0.00%    MPKI:0.00
PC:2b05e     Total:1      MisBP:0   MisRate:0.00%    MPKI:0.00
PC:20e3c     Total:327      MisBP:0   MisRate:0.00%    MPKI:0.00
PC:19576     Total:2516      MisBP:0   MisRate:0.00%    MPKI:0.00
PC:1e5b8     Total:44      MisBP:0   MisRate:0.00%    MPKI:0.00
PC:1957a     Total:2516      MisBP:0   MisRate:0.00%    MPKI:0.00
PC:18e90     Total:55358      MisBP:0   MisRate:0.00%    MPKI:0.00
PC:230b2     Total:37711      MisBP:0   MisRate:0.00%    MPKI:0.00
PC:191ba     Total:3572      MisBP:0   MisRate:0.00%    MPKI:0.00
PC:191d4     Total:51091      MisBP:0   MisRate:0.00%    MPKI:0.00
PC:18e96     Total:55357      MisBP:0   MisRate:0.00%    MPKI:0.00
PC:230b8     Total:58080      MisBP:0   MisRate:0.00%    MPKI:0.00
PC:19034     Total:1900      MisBP:0   MisRate:0.00%    MPKI:0.00
PC:191c0     Total:3463      MisBP:0   MisRate:0.00%    MPKI:0.00
PC:18e9a     Total:53343      MisBP:0   MisRate:0.00%    MPKI:0.00
PC:230bc     Total:58080      MisBP:0   MisRate:0.00%    MPKI:0.00
PC:19038     Total:1900      MisBP:0   MisRate:0.00%    MPKI:0.00
PC:189c0     Total:138607      MisBP:0   MisRate:0.00%    MPKI:0.00
PC:41248     Total:1      MisBP:0   MisRate:0.00%    MPKI:0.00
PC:191c4     Total:51132      MisBP:0   MisRate:0.00%    MPKI:0.00
PC:413d4     Total:15      MisBP:0   MisRate:0.00%    MPKI:0.00
PC:1e22a     Total:314      MisBP:0   MisRate:0.00%    MPKI:0.00
PC:413f2     Total:1      MisBP:0   MisRate:0.00%    MPKI:0.00
PC:2ae6a     Total:1      MisBP:0   MisRate:0.00%    MPKI:0.00
PC:16a26     Total:1224      MisBP:0   MisRate:0.00%    MPKI:0.00
PC:18eba     Total:16027      MisBP:0   MisRate:0.00%    MPKI:0.00
PC:230dc     Total:184148      MisBP:0   MisRate:0.00%    MPKI:0.00
PC:189e0     Total:22013      MisBP:0   MisRate:0.00%    MPKI:0.00
PC:41268     Total:1      MisBP:0   MisRate:0.00%    MPKI:0.00
PC:191e4     Total:46008      MisBP:0   MisRate:0.00%    MPKI:0.00
PC:1e226     Total:318      MisBP:0   MisRate:0.00%    MPKI:0.00
PC:413f4     Total:1      MisBP:0   MisRate:0.00%    MPKI:0.00
PC:16a2a     Total:1224      MisBP:0   MisRate:0.00%    MPKI:0.00
PC:191e8     Total:46113      MisBP:0   MisRate:0.00%    MPKI:0.00
PC:1e224     Total:318      MisBP:0   MisRate:0.00%    MPKI:0.00
PC:413f8     Total:1      MisBP:0   MisRate:0.00%    MPKI:0.00
PC:16a2c     Total:1      MisBP:0   MisRate:0.00%    MPKI:0.00
PC:191ea     Total:46098      MisBP:0   MisRate:0.00%    MPKI:0.00
PC:16a2e     Total:1      MisBP:0   MisRate:0.00%    MPKI:0.00
PC:191ec     Total:45832      MisBP:0   MisRate:0.00%    MPKI:0.00
PC:1e22e     Total:314      MisBP:0   MisRate:0.00%    MPKI:0.00
PC:413fc     Total:1      MisBP:0   MisRate:0.00%    MPKI:0.00
PC:191ee     Total:45831      MisBP:0   MisRate:0.00%    MPKI:0.00
PC:191f2     Total:45831      MisBP:0   MisRate:0.00%    MPKI:0.00
PC:16a38     Total:1      MisBP:0   MisRate:0.00%    MPKI:0.00
PC:191f6     Total:45825      MisBP:0   MisRate:0.00%    MPKI:0.00
PC:41260     Total:1      MisBP:0   MisRate:0.00%    MPKI:0.00
PC:1e216     Total:326      MisBP:0   MisRate:0.00%    MPKI:0.00
PC:413e4     Total:1      MisBP:0   MisRate:0.00%    MPKI:0.00
PC:191d6     Total:50483      MisBP:0   MisRate:0.00%    MPKI:0.00
PC:191da     Total:50483      MisBP:0   MisRate:0.00%    MPKI:0.00
PC:1e21c     Total:321      MisBP:0   MisRate:0.00%    MPKI:0.00
PC:413ea     Total:1      MisBP:0   MisRate:0.00%    MPKI:0.00
PC:2ae62     Total:2      MisBP:0   MisRate:0.00%    MPKI:0.00
PC:16a1e     Total:1224      MisBP:0   MisRate:0.00%    MPKI:0.00
PC:18eb2     Total:52295      MisBP:0   MisRate:0.00%    MPKI:0.00
PC:230d4     Total:139244      MisBP:0   MisRate:0.00%    MPKI:0.00
PC:189d8     Total:125518      MisBP:0   MisRate:0.00%    MPKI:0.00
PC:19572     Total:2536      MisBP:0   MisRate:0.00%    MPKI:0.00
PC:1e21e     Total:321      MisBP:0   MisRate:0.00%    MPKI:0.00
PC:413ec     Total:1      MisBP:0   MisRate:0.00%    MPKI:0.00
PC:2ae66     Total:1      MisBP:0   MisRate:0.00%    MPKI:0.00
PC:16a22     Total:1224      MisBP:0   MisRate:0.00%    MPKI:0.00
PC:18eb6     Total:15651      MisBP:0   MisRate:0.00%    MPKI:0.00
PC:230d8     Total:184191      MisBP:0   MisRate:0.00%    MPKI:0.00
PC:189dc     Total:22013      MisBP:0   MisRate:0.00%    MPKI:0.00
PC:41264     Total:1      MisBP:0   MisRate:0.00%    MPKI:0.00
PC:191e0     Total:45632      MisBP:0   MisRate:0.00%    MPKI:0.00
PC:1e222     Total:320      MisBP:0   MisRate:0.00%    MPKI:0.00
PC:191e2     Total:46035      MisBP:0   MisRate:0.00%    MPKI:0.00
PC:1917a     Total:131405      MisBP:0   MisRate:0.00%    MPKI:0.00
PC:1e1b2     Total:445      MisBP:0   MisRate:0.00%    MPKI:0.00
PC:18af8     Total:16567      MisBP:0   MisRate:0.00%    MPKI:0.00
PC:41380     Total:96      MisBP:0   MisRate:0.00%    MPKI:0.00
PC:18e4a     Total:714325      MisBP:0   MisRate:0.00%    MPKI:0.00
PC:2306c     Total:1506      MisBP:0   MisRate:0.00%    MPKI:0.00
PC:19174     Total:131405      MisBP:0   MisRate:0.00%    MPKI:0.00
PC:1e1b6     Total:2217      MisBP:0   MisRate:0.00%    MPKI:0.00
PC:41384     Total:96      MisBP:0   MisRate:0.00%    MPKI:0.00
PC:19178     Total:131405      MisBP:0   MisRate:0.00%    MPKI:0.00
PC:41388     Total:96      MisBP:0   MisRate:0.00%    MPKI:0.00
PC:23072     Total:1119      MisBP:0   MisRate:0.00%    MPKI:0.00
PC:1e030     Total:141      MisBP:0   MisRate:0.00%    MPKI:0.00
PC:19170     Total:131406      MisBP:0   MisRate:0.00%    MPKI:0.00
PC:1e1bc     Total:882      MisBP:0   MisRate:0.00%    MPKI:0.00
PC:1917e     Total:131405      MisBP:0   MisRate:0.00%    MPKI:0.00
PC:1e1c0     Total:379      MisBP:0   MisRate:0.00%    MPKI:0.00
PC:18b06     Total:10683      MisBP:0   MisRate:0.00%    MPKI:0.00
PC:4138e     Total:96      MisBP:0   MisRate:0.00%    MPKI:0.00
PC:16d80     Total:157920      MisBP:0   MisRate:0.00%    MPKI:0.00
PC:16be2     Total:6      MisBP:0   MisRate:0.00%    MPKI:0.00
PC:20e04     Total:15555      MisBP:0   MisRate:0.00%    MPKI:0.00
PC:1953e     Total:58985      MisBP:0   MisRate:0.00%    MPKI:0.00
PC:1e580     Total:38      MisBP:0   MisRate:0.00%    MPKI:0.00
PC:19542     Total:58983      MisBP:0   MisRate:0.00%    MPKI:0.00
PC:18e3c     Total:773640      MisBP:0   MisRate:0.00%    MPKI:0.00
PC:1e262     Total:23      MisBP:0   MisRate:0.00%    MPKI:0.00
PC:1915a     Total:156041      MisBP:0   MisRate:0.00%    MPKI:0.00
PC:1e19c     Total:447      MisBP:0   MisRate:0.00%    MPKI:0.00
PC:18ae2     Total:65200      MisBP:0   MisRate:0.00%    MPKI:0.00
PC:4136a     Total:57      MisBP:0   MisRate:0.00%    MPKI:0.00
PC:1e19e     Total:447      MisBP:0   MisRate:0.00%    MPKI:0.00
PC:4136c     Total:57      MisBP:0   MisRate:0.00%    MPKI:0.00
PC:19160     Total:138843      MisBP:0   MisRate:0.00%    MPKI:0.00
PC:18ae8     Total:65200      MisBP:0   MisRate:0.00%    MPKI:0.00
PC:41370     Total:57      MisBP:0   MisRate:0.00%    MPKI:0.00
PC:19162     Total:138841      MisBP:0   MisRate:0.00%    MPKI:0.00
PC:1e1a4     Total:447      MisBP:0   MisRate:0.00%    MPKI:0.00
PC:1e584     Total:38      MisBP:0   MisRate:0.00%    MPKI:0.00
PC:2305e     Total:1590      MisBP:0   MisRate:0.00%    MPKI:0.00
PC:19166     Total:138841      MisBP:0   MisRate:0.00%    MPKI:0.00
PC:1e1a8     Total:447      MisBP:0   MisRate:0.00%    MPKI:0.00
PC:18aee     Total:16414      MisBP:0   MisRate:0.00%    MPKI:0.00
PC:41376     Total:57      MisBP:0   MisRate:0.00%    MPKI:0.00
PC:23062     Total:1590      MisBP:0   MisRate:0.00%    MPKI:0.00
PC:1916a     Total:137158      MisBP:0   MisRate:0.00%    MPKI:0.00
PC:1e1ac     Total:446      MisBP:0   MisRate:0.00%    MPKI:0.00
PC:18af2     Total:16414      MisBP:0   MisRate:0.00%    MPKI:0.00
PC:4137a     Total:105      MisBP:0   MisRate:0.00%    MPKI:0.00
PC:1e1ae     Total:445      MisBP:0   MisRate:0.00%    MPKI:0.00
PC:19562     Total:23917      MisBP:0   MisRate:0.00%    MPKI:0.00
PC:16d9c     Total:151341      MisBP:0   MisRate:0.00%    MPKI:0.00
PC:20e20     Total:18987      MisBP:0   MisRate:0.00%    MPKI:0.00
PC:1955a     Total:144361      MisBP:0   MisRate:0.00%    MPKI:0.00
PC:1e59c     Total:39      MisBP:0   MisRate:0.00%    MPKI:0.00
PC:1955c     Total:144359      MisBP:0   MisRate:0.00%    MPKI:0.00
PC:1e59e     Total:39      MisBP:0   MisRate:0.00%    MPKI:0.00
PC:16da0     Total:151339      MisBP:0   MisRate:0.00%    MPKI:0.00
PC:20e24     Total:18777      MisBP:0   MisRate:0.00%    MPKI:0.00
PC:1955e     Total:144346      MisBP:0   MisRate:0.00%    MPKI:0.00
PC:1e5a0     Total:39      MisBP:0   MisRate:0.00%    MPKI:0.00
PC:19560     Total:23917      MisBP:0   MisRate:0.00%    MPKI:0.00
PC:16da4     Total:151339      MisBP:0   MisRate:0.00%    MPKI:0.00
PC:1e59a     Total:7      MisBP:0   MisRate:0.00%    MPKI:0.00
PC:1e5a4     Total:39      MisBP:0   MisRate:0.00%    MPKI:0.00
PC:19564     Total:23915      MisBP:0   MisRate:0.00%    MPKI:0.00
PC:16daa     Total:151337      MisBP:0   MisRate:0.00%    MPKI:0.00
PC:19568     Total:23915      MisBP:0   MisRate:0.00%    MPKI:0.00
PC:16dae     Total:151337      MisBP:0   MisRate:0.00%    MPKI:0.00
PC:16c10     Total:187      MisBP:0   MisRate:0.00%    MPKI:0.00
PC:20e32     Total:327      MisBP:0   MisRate:0.00%    MPKI:0.00
PC:1956c     Total:23909      MisBP:0   MisRate:0.00%    MPKI:0.00
PC:1e5ae     Total:39      MisBP:0   MisRate:0.00%    MPKI:0.00
PC:16db0     Total:151336      MisBP:0   MisRate:0.00%    MPKI:0.00
PC:16db4     Total:144630      MisBP:0   MisRate:0.00%    MPKI:0.00
PC:1e58c     Total:38      MisBP:0   MisRate:0.00%    MPKI:0.00
PC:16d86     Total:157916      MisBP:0   MisRate:0.00%    MPKI:0.00
PC:20e0a     Total:15551      MisBP:0   MisRate:0.00%    MPKI:0.00
PC:19546     Total:1323      MisBP:0   MisRate:0.00%    MPKI:0.00
PC:1e588     Total:38      MisBP:0   MisRate:0.00%    MPKI:0.00
PC:20fac     Total:1      MisBP:0   MisRate:0.00%    MPKI:0.00
PC:16d8a     Total:157916      MisBP:0   MisRate:0.00%    MPKI:0.00
PC:20e0e     Total:19090      MisBP:0   MisRate:0.00%    MPKI:0.00
PC:19548     Total:1323      MisBP:0   MisRate:0.00%    MPKI:0.00
PC:20fae     Total:1      MisBP:0   MisRate:0.00%    MPKI:0.00
PC:16d8c     Total:157916      MisBP:0   MisRate:0.00%    MPKI:0.00
PC:1954a     Total:1323      MisBP:0   MisRate:0.00%    MPKI:0.00
PC:14ecc     Total:4060      MisBP:0   MisRate:0.00%    MPKI:0.00
PC:1954e     Total:1323      MisBP:0   MisRate:0.00%    MPKI:0.00
PC:16d92     Total:158104      MisBP:0   MisRate:0.00%    MPKI:0.00
PC:19550     Total:1323      MisBP:0   MisRate:0.00%    MPKI:0.00
PC:1e592     Total:7      MisBP:0   MisRate:0.00%    MPKI:0.00
PC:16d94     Total:158104      MisBP:0   MisRate:0.00%    MPKI:0.00
PC:16bf6     Total:1      MisBP:0   MisRate:0.00%    MPKI:0.00
PC:20e18     Total:19008      MisBP:0   MisRate:0.00%    MPKI:0.00
PC:19552     Total:75484      MisBP:0   MisRate:0.00%    MPKI:0.00
PC:1e594     Total:7      MisBP:0   MisRate:0.00%    MPKI:0.00
PC:1e596     Total:7      MisBP:0   MisRate:0.00%    MPKI:0.00
PC:19558     Total:144373      MisBP:0   MisRate:0.00%    MPKI:0.00
PC:196d8     Total:6022      MisBP:0   MisRate:0.00%    MPKI:0.00
PC:1e704     Total:32      MisBP:0   MisRate:0.00%    MPKI:0.00
PC:196c4     Total:5903      MisBP:0   MisRate:0.00%    MPKI:0.00
PC:1e706     Total:32      MisBP:0   MisRate:0.00%    MPKI:0.00
PC:196c8     Total:5903      MisBP:0   MisRate:0.00%    MPKI:0.00
PC:196cc     Total:5903      MisBP:0   MisRate:0.00%    MPKI:0.00
PC:1e70e     Total:32      MisBP:0   MisRate:0.00%    MPKI:0.00
PC:196d0     Total:5903      MisBP:0   MisRate:0.00%    MPKI:0.00
PC:1e712     Total:32      MisBP:0   MisRate:0.00%    MPKI:0.00
PC:196d4     Total:6120      MisBP:0   MisRate:0.00%    MPKI:0.00
PC:d9f5c     Total:1      MisBP:0   MisRate:0.00%    MPKI:0.00
PC:196d6     Total:6120      MisBP:0   MisRate:0.00%    MPKI:0.00
PC:1e718     Total:26      MisBP:0   MisRate:0.00%    MPKI:0.00
PC:196c2     Total:5903      MisBP:0   MisRate:0.00%    MPKI:0.00
PC:1e71a     Total:26      MisBP:0   MisRate:0.00%    MPKI:0.00
PC:d9f60     Total:1      MisBP:0   MisRate:0.00%    MPKI:0.00
PC:196da     Total:6022      MisBP:0   MisRate:0.00%    MPKI:0.00
PC:1e71c     Total:26      MisBP:0   MisRate:0.00%    MPKI:0.00
PC:196dc     Total:6205      MisBP:0   MisRate:0.00%    MPKI:0.00
PC:1e71e     Total:26      MisBP:0   MisRate:0.00%    MPKI:0.00
PC:d9f64     Total:1      MisBP:0   MisRate:0.00%    MPKI:0.00
PC:196de     Total:6205      MisBP:0   MisRate:0.00%    MPKI:0.00
PC:196e4     Total:6339      MisBP:0   MisRate:0.00%    MPKI:0.00
PC:1e726     Total:21      MisBP:0   MisRate:0.00%    MPKI:0.00
PC:d9f7c     Total:1      MisBP:0   MisRate:0.00%    MPKI:0.00
PC:198a4     Total:2      MisBP:0   MisRate:0.00%    MPKI:0.00
PC:1988c     Total:2      MisBP:0   MisRate:0.00%    MPKI:0.00
PC:1988e     Total:2      MisBP:0   MisRate:0.00%    MPKI:0.00
PC:4211a     Total:2      MisBP:0   MisRate:0.00%    MPKI:0.00
PC:19892     Total:2      MisBP:0   MisRate:0.00%    MPKI:0.00
PC:19894     Total:2      MisBP:0   MisRate:0.00%    MPKI:0.00
PC:42120     Total:2      MisBP:0   MisRate:0.00%    MPKI:0.00
PC:19898     Total:2      MisBP:0   MisRate:0.00%    MPKI:0.00
PC:42124     Total:2      MisBP:0   MisRate:0.00%    MPKI:0.00
PC:1989c     Total:2      MisBP:0   MisRate:0.00%    MPKI:0.00
PC:1989e     Total:2      MisBP:0   MisRate:0.00%    MPKI:0.00
PC:42128     Total:2      MisBP:0   MisRate:0.00%    MPKI:0.00
PC:198a0     Total:2      MisBP:0   MisRate:0.00%    MPKI:0.00
PC:196f6     Total:6080      MisBP:0   MisRate:0.00%    MPKI:0.00
PC:198a6     Total:2      MisBP:0   MisRate:0.00%    MPKI:0.00
PC:198a8     Total:2      MisBP:0   MisRate:0.00%    MPKI:0.00
PC:198aa     Total:2      MisBP:0   MisRate:0.00%    MPKI:0.00
PC:198ac     Total:1      MisBP:0   MisRate:0.00%    MPKI:0.00
PC:198ae     Total:1      MisBP:0   MisRate:0.00%    MPKI:0.00
PC:198b0     Total:1      MisBP:0   MisRate:0.00%    MPKI:0.00
PC:198b2     Total:1      MisBP:0   MisRate:0.00%    MPKI:0.00
PC:198b4     Total:1      MisBP:0   MisRate:0.00%    MPKI:0.00
PC:198b6     Total:1      MisBP:0   MisRate:0.00%    MPKI:0.00
PC:196c0     Total:5903      MisBP:0   MisRate:0.00%    MPKI:0.00
PC:d9f48     Total:1      MisBP:0   MisRate:0.00%    MPKI:0.00
PC:42a2c     Total:54      MisBP:0   MisRate:0.00%    MPKI:0.00
PC:157b8     Total:3803      MisBP:0   MisRate:0.00%    MPKI:0.00
PC:157bc     Total:3802      MisBP:0   MisRate:0.00%    MPKI:0.00
PC:157c2     Total:2806      MisBP:0   MisRate:0.00%    MPKI:0.00
PC:3394e     Total:3      MisBP:0   MisRate:0.00%    MPKI:0.00
PC:157c6     Total:5389      MisBP:0   MisRate:0.00%    MPKI:0.00
PC:33952     Total:2      MisBP:0   MisRate:0.00%    MPKI:0.00
PC:157c8     Total:5389      MisBP:0   MisRate:0.00%    MPKI:0.00
PC:157ca     Total:5389      MisBP:0   MisRate:0.00%    MPKI:0.00
PC:157ce     Total:3457      MisBP:0   MisRate:0.00%    MPKI:0.00
PC:157d2     Total:862      MisBP:0   MisRate:0.00%    MPKI:0.00
PC:157d6     Total:862      MisBP:0   MisRate:0.00%    MPKI:0.00
PC:157da     Total:862      MisBP:0   MisRate:0.00%    MPKI:0.00
PC:157b4     Total:3803      MisBP:0   MisRate:0.00%    MPKI:0.00
PC:157de     Total:862      MisBP:0   MisRate:0.00%    MPKI:0.00
PC:42a30     Total:1      MisBP:0   MisRate:0.00%    MPKI:0.00
PC:157e2     Total:862      MisBP:0   MisRate:0.00%    MPKI:0.00
PC:42a34     Total:1      MisBP:0   MisRate:0.00%    MPKI:0.00
PC:42a36     Total:1      MisBP:0   MisRate:0.00%    MPKI:0.00
PC:157e8     Total:837      MisBP:0   MisRate:0.00%    MPKI:0.00
PC:42a3a     Total:1      MisBP:0   MisRate:0.00%    MPKI:0.00
PC:157ec     Total:837      MisBP:0   MisRate:0.00%    MPKI:0.00
PC:42a3e     Total:54      MisBP:0   MisRate:0.00%    MPKI:0.00
PC:157ee     Total:690      MisBP:0   MisRate:0.00%    MPKI:0.00
PC:42a40     Total:53      MisBP:0   MisRate:0.00%    MPKI:0.00
PC:19716     Total:5883      MisBP:0   MisRate:0.00%    MPKI:0.00
PC:1e738     Total:2      MisBP:0   MisRate:0.00%    MPKI:0.00
PC:1659a     Total:7      MisBP:0   MisRate:0.00%    MPKI:0.00
PC:1659e     Total:7      MisBP:0   MisRate:0.00%    MPKI:0.00
PC:165a2     Total:7      MisBP:0   MisRate:0.00%    MPKI:0.00
PC:165a6     Total:7      MisBP:0   MisRate:0.00%    MPKI:0.00
PC:165aa     Total:7      MisBP:0   MisRate:0.00%    MPKI:0.00
PC:165b4     Total:7      MisBP:0   MisRate:0.00%    MPKI:0.00
PC:19704     Total:5883      MisBP:0   MisRate:0.00%    MPKI:0.00
PC:19708     Total:5883      MisBP:0   MisRate:0.00%    MPKI:0.00
PC:1970a     Total:5883      MisBP:0   MisRate:0.00%    MPKI:0.00
PC:1970e     Total:5883      MisBP:0   MisRate:0.00%    MPKI:0.00
PC:19712     Total:5883      MisBP:0   MisRate:0.00%    MPKI:0.00
PC:42114     Total:2      MisBP:0   MisRate:0.00%    MPKI:0.00
PC:1971a     Total:5883      MisBP:0   MisRate:0.00%    MPKI:0.00
PC:1971e     Total:5722      MisBP:0   MisRate:0.00%    MPKI:0.00
PC:19722     Total:5722      MisBP:0   MisRate:0.00%    MPKI:0.00
PC:19726     Total:5721      MisBP:0   MisRate:0.00%    MPKI:0.00
PC:19728     Total:5721      MisBP:0   MisRate:0.00%    MPKI:0.00
PC:1972c     Total:5721      MisBP:0   MisRate:0.00%    MPKI:0.00
PC:19730     Total:6151      MisBP:0   MisRate:0.00%    MPKI:0.00
PC:19732     Total:6151      MisBP:0   MisRate:0.00%    MPKI:0.00
PC:19736     Total:6151      MisBP:0   MisRate:0.00%    MPKI:0.00
PC:157ac     Total:3803      MisBP:0   MisRate:0.00%    MPKI:0.00
PC:157b0     Total:3803      MisBP:0   MisRate:0.00%    MPKI:0.00
PC:154e8     Total:5961      MisBP:0   MisRate:0.00%    MPKI:0.00
PC:154c6     Total:1153      MisBP:0   MisRate:0.00%    MPKI:0.00
PC:1f6ec     Total:3      MisBP:0   MisRate:0.00%    MPKI:0.00
PC:154ca     Total:1153      MisBP:0   MisRate:0.00%    MPKI:0.00
PC:1f6f0     Total:3      MisBP:0   MisRate:0.00%    MPKI:0.00
PC:154ce     Total:1153      MisBP:0   MisRate:0.00%    MPKI:0.00
PC:1f6f6     Total:4      MisBP:0   MisRate:0.00%    MPKI:0.00
PC:154d4     Total:1139      MisBP:0   MisRate:0.00%    MPKI:0.00
PC:154d8     Total:1356      MisBP:0   MisRate:0.00%    MPKI:0.00
PC:154da     Total:1250      MisBP:0   MisRate:0.00%    MPKI:0.00
PC:154de     Total:1248      MisBP:0   MisRate:0.00%    MPKI:0.00
PC:154e2     Total:1052      MisBP:0   MisRate:0.00%    MPKI:0.00
PC:154e4     Total:5961      MisBP:0   MisRate:0.00%    MPKI:0.00
PC:1f6e8     Total:3      MisBP:0   MisRate:0.00%    MPKI:0.00
PC:154ec     Total:5961      MisBP:0   MisRate:0.00%    MPKI:0.00
PC:154f0     Total:5961      MisBP:0   MisRate:0.00%    MPKI:0.00
PC:154f4     Total:5957      MisBP:0   MisRate:0.00%    MPKI:0.00
PC:154fa     Total:2278      MisBP:0   MisRate:0.00%    MPKI:0.00
PC:1f71e     Total:2      MisBP:0   MisRate:0.00%    MPKI:0.00
PC:21e22     Total:9      MisBP:0   MisRate:0.00%    MPKI:0.00
PC:17c00     Total:5733      MisBP:0   MisRate:0.00%    MPKI:0.00
PC:21e24     Total:9      MisBP:0   MisRate:0.00%    MPKI:0.00
PC:17c02     Total:5733      MisBP:0   MisRate:0.00%    MPKI:0.00
PC:21e28     Total:9      MisBP:0   MisRate:0.00%    MPKI:0.00
PC:17c06     Total:3785      MisBP:0   MisRate:0.00%    MPKI:0.00
PC:154ac     Total:4190      MisBP:0   MisRate:0.00%    MPKI:0.00
PC:16580     Total:1697      MisBP:0   MisRate:0.00%    MPKI:0.00
PC:16582     Total:1697      MisBP:0   MisRate:0.00%    MPKI:0.00
PC:16586     Total:1697      MisBP:0   MisRate:0.00%    MPKI:0.00
PC:1658a     Total:1697      MisBP:0   MisRate:0.00%    MPKI:0.00
PC:1658e     Total:1697      MisBP:0   MisRate:0.00%    MPKI:0.00
PC:16592     Total:12      MisBP:0   MisRate:0.00%    MPKI:0.00
PC:16594     Total:12      MisBP:0   MisRate:0.00%    MPKI:0.00
PC:16596     Total:12      MisBP:0   MisRate:0.00%    MPKI:0.00
PC:1f6c6     Total:3      MisBP:0   MisRate:0.00%    MPKI:0.00
PC:154a4     Total:4190      MisBP:0   MisRate:0.00%    MPKI:0.00
PC:1f6ca     Total:3      MisBP:0   MisRate:0.00%    MPKI:0.00
PC:154a8     Total:4190      MisBP:0   MisRate:0.00%    MPKI:0.00
PC:21e2c     Total:8      MisBP:0   MisRate:0.00%    MPKI:0.00
PC:154b0     Total:4190      MisBP:0   MisRate:0.00%    MPKI:0.00
PC:1f6d6     Total:3      MisBP:0   MisRate:0.00%    MPKI:0.00
PC:154b4     Total:4190      MisBP:0   MisRate:0.00%    MPKI:0.00
PC:1f6d8     Total:3      MisBP:0   MisRate:0.00%    MPKI:0.00
PC:1f6dc     Total:3      MisBP:0   MisRate:0.00%    MPKI:0.00
PC:154ba     Total:2663      MisBP:0   MisRate:0.00%    MPKI:0.00
PC:1f6de     Total:3      MisBP:0   MisRate:0.00%    MPKI:0.00
PC:161a0     Total:589      MisBP:0   MisRate:0.00%    MPKI:0.00
PC:154be     Total:1154      MisBP:0   MisRate:0.00%    MPKI:0.00
PC:1f6e4     Total:3      MisBP:0   MisRate:0.00%    MPKI:0.00
PC:154c2     Total:1154      MisBP:0   MisRate:0.00%    MPKI:0.00
PC:21e5c     Total:2      MisBP:0   MisRate:0.00%    MPKI:0.00
PC:21e4c     Total:3      MisBP:0   MisRate:0.00%    MPKI:0.00
PC:2c06e     Total:46      MisBP:0   MisRate:0.00%    MPKI:0.00
PC:17c2a     Total:812      MisBP:0   MisRate:0.00%    MPKI:0.00
PC:2c072     Total:46      MisBP:0   MisRate:0.00%    MPKI:0.00
PC:17c2e     Total:34      MisBP:0   MisRate:0.00%    MPKI:0.00
PC:2c074     Total:46      MisBP:0   MisRate:0.00%    MPKI:0.00
PC:17c30     Total:34      MisBP:0   MisRate:0.00%    MPKI:0.00
PC:2c076     Total:46      MisBP:0   MisRate:0.00%    MPKI:0.00
PC:17c32     Total:31      MisBP:0   MisRate:0.00%    MPKI:0.00
PC:17c36     Total:6      MisBP:0   MisRate:0.00%    MPKI:0.00
PC:2c07c     Total:2      MisBP:0   MisRate:0.00%    MPKI:0.00
PC:17c38     Total:6      MisBP:0   MisRate:0.00%    MPKI:0.00
PC:17c28     Total:812      MisBP:0   MisRate:0.00%    MPKI:0.00
PC:2c07e     Total:2      MisBP:0   MisRate:0.00%    MPKI:0.00
PC:17c3a     Total:6      MisBP:0   MisRate:0.00%    MPKI:0.00
PC:21e60     Total:15      MisBP:0   MisRate:0.00%    MPKI:0.00
PC:2c082     Total:48      MisBP:0   MisRate:0.00%    MPKI:0.00
PC:17c3e     Total:6      MisBP:0   MisRate:0.00%    MPKI:0.00
PC:42108     Total:2      MisBP:0   MisRate:0.00%    MPKI:0.00
PC:19880     Total:6266      MisBP:0   MisRate:0.00%    MPKI:0.00
PC:19884     Total:2      MisBP:0   MisRate:0.00%    MPKI:0.00
PC:4210e     Total:2      MisBP:0   MisRate:0.00%    MPKI:0.00
PC:19886     Total:2      MisBP:0   MisRate:0.00%    MPKI:0.00
PC:19888     Total:2      MisBP:0   MisRate:0.00%    MPKI:0.00
PC:17c1a     Total:1540      MisBP:0   MisRate:0.00%    MPKI:0.00
PC:2c04e     Total:47      MisBP:0   MisRate:0.00%    MPKI:0.00
PC:17c0a     Total:3785      MisBP:0   MisRate:0.00%    MPKI:0.00
PC:21e2e     Total:7      MisBP:0   MisRate:0.00%    MPKI:0.00
PC:17c0c     Total:3785      MisBP:0   MisRate:0.00%    MPKI:0.00
PC:21e34     Total:6      MisBP:0   MisRate:0.00%    MPKI:0.00
PC:17c12     Total:3785      MisBP:0   MisRate:0.00%    MPKI:0.00
PC:21e3a     Total:6      MisBP:0   MisRate:0.00%    MPKI:0.00
PC:2c05c     Total:47      MisBP:0   MisRate:0.00%    MPKI:0.00
PC:17c18     Total:1540      MisBP:0   MisRate:0.00%    MPKI:0.00
PC:21e3c     Total:17      MisBP:0   MisRate:0.00%    MPKI:0.00
PC:2c05e     Total:47      MisBP:0   MisRate:0.00%    MPKI:0.00
PC:157f0     Total:690      MisBP:0   MisRate:0.00%    MPKI:0.00
PC:21e3e     Total:17      MisBP:0   MisRate:0.00%    MPKI:0.00
PC:2c060     Total:46      MisBP:0   MisRate:0.00%    MPKI:0.00
PC:17c1c     Total:1514      MisBP:0   MisRate:0.00%    MPKI:0.00
PC:2c064     Total:46      MisBP:0   MisRate:0.00%    MPKI:0.00
PC:17c20     Total:53      MisBP:0   MisRate:0.00%    MPKI:0.00
PC:21e44     Total:16      MisBP:0   MisRate:0.00%    MPKI:0.00
PC:2c066     Total:46      MisBP:0   MisRate:0.00%    MPKI:0.00
PC:17c22     Total:53      MisBP:0   MisRate:0.00%    MPKI:0.00
PC:2c06a     Total:46      MisBP:0   MisRate:0.00%    MPKI:0.00
PC:17c26     Total:812      MisBP:0   MisRate:0.00%    MPKI:0.00
PC:2c06c     Total:46      MisBP:0   MisRate:0.00%    MPKI:0.00
PC:19772     Total:5955      MisBP:0   MisRate:0.00%    MPKI:0.00
PC:1e7a4     Total:20      MisBP:0   MisRate:0.00%    MPKI:0.00
PC:19764     Total:5551      MisBP:0   MisRate:0.00%    MPKI:0.00
PC:1e7a6     Total:20      MisBP:0   MisRate:0.00%    MPKI:0.00
PC:19766     Total:5551      MisBP:0   MisRate:0.00%    MPKI:0.00
PC:1e7a8     Total:20      MisBP:0   MisRate:0.00%    MPKI:0.00
PC:1e7aa     Total:20      MisBP:0   MisRate:0.00%    MPKI:0.00
PC:1976a     Total:3375      MisBP:0   MisRate:0.00%    MPKI:0.00
PC:1976c     Total:5957      MisBP:0   MisRate:0.00%    MPKI:0.00
PC:1e7ae     Total:19      MisBP:0   MisRate:0.00%    MPKI:0.00
PC:1976e     Total:5955      MisBP:0   MisRate:0.00%    MPKI:0.00
PC:19770     Total:5955      MisBP:0   MisRate:0.00%    MPKI:0.00
PC:1e7b2     Total:19      MisBP:0   MisRate:0.00%    MPKI:0.00
PC:19762     Total:5551      MisBP:0   MisRate:0.00%    MPKI:0.00
PC:1e7b8     Total:19      MisBP:0   MisRate:0.00%    MPKI:0.00
PC:19778     Total:5823      MisBP:0   MisRate:0.00%    MPKI:0.00
PC:1e7ba     Total:19      MisBP:0   MisRate:0.00%    MPKI:0.00
PC:1977a     Total:6122      MisBP:0   MisRate:0.00%    MPKI:0.00
PC:1e7bc     Total:19      MisBP:0   MisRate:0.00%    MPKI:0.00
PC:1977c     Total:6117      MisBP:0   MisRate:0.00%    MPKI:0.00
PC:1e7be     Total:19      MisBP:0   MisRate:0.00%    MPKI:0.00
PC:1977e     Total:6009      MisBP:0   MisRate:0.00%    MPKI:0.00
PC:1e7c0     Total:6      MisBP:0   MisRate:0.00%    MPKI:0.00
PC:19780     Total:5703      MisBP:0   MisRate:0.00%    MPKI:0.00
PC:1e7c2     Total:6      MisBP:0   MisRate:0.00%    MPKI:0.00
PC:1974a     Total:5548      MisBP:0   MisRate:0.00%    MPKI:0.00
PC:15776     Total:20      MisBP:0   MisRate:0.00%    MPKI:0.00
PC:1577a     Total:21      MisBP:0   MisRate:0.00%    MPKI:0.00
PC:1577c     Total:6      MisBP:0   MisRate:0.00%    MPKI:0.00
PC:1577e     Total:6      MisBP:0   MisRate:0.00%    MPKI:0.00
PC:1e0b8     Total:4364      MisBP:0   MisRate:0.00%    MPKI:0.00
PC:1973a     Total:5836      MisBP:0   MisRate:0.00%    MPKI:0.00
PC:1973c     Total:5835      MisBP:0   MisRate:0.00%    MPKI:0.00
PC:19740     Total:5448      MisBP:0   MisRate:0.00%    MPKI:0.00
PC:19744     Total:5448      MisBP:0   MisRate:0.00%    MPKI:0.00
PC:1e786     Total:19      MisBP:0   MisRate:0.00%    MPKI:0.00
PC:19748     Total:5548      MisBP:0   MisRate:0.00%    MPKI:0.00
PC:1e78a     Total:19      MisBP:0   MisRate:0.00%    MPKI:0.00
PC:1e7c6     Total:6      MisBP:0   MisRate:0.00%    MPKI:0.00
PC:1974e     Total:5548      MisBP:0   MisRate:0.00%    MPKI:0.00
PC:1e790     Total:49      MisBP:0   MisRate:0.00%    MPKI:0.00
PC:19750     Total:5548      MisBP:0   MisRate:0.00%    MPKI:0.00
PC:1e792     Total:49      MisBP:0   MisRate:0.00%    MPKI:0.00
PC:19754     Total:5548      MisBP:0   MisRate:0.00%    MPKI:0.00
PC:19758     Total:5548      MisBP:0   MisRate:0.00%    MPKI:0.00
PC:1e79a     Total:49      MisBP:0   MisRate:0.00%    MPKI:0.00
PC:1975a     Total:5409      MisBP:0   MisRate:0.00%    MPKI:0.00
PC:1e79c     Total:49      MisBP:0   MisRate:0.00%    MPKI:0.00
PC:1975c     Total:5555      MisBP:0   MisRate:0.00%    MPKI:0.00
PC:1975e     Total:5551      MisBP:0   MisRate:0.00%    MPKI:0.00
PC:2009e     Total:4116      MisBP:0   MisRate:0.00%    MPKI:0.00
PC:197ae     Total:6615      MisBP:0   MisRate:0.00%    MPKI:0.00
PC:1e7f4     Total:6      MisBP:0   MisRate:0.00%    MPKI:0.00
PC:197b4     Total:2960      MisBP:0   MisRate:0.00%    MPKI:0.00
PC:2022a     Total:44028      MisBP:0   MisRate:0.00%    MPKI:0.00
PC:16008     Total:175      MisBP:0   MisRate:0.00%    MPKI:0.00
PC:20090     Total:4116      MisBP:0   MisRate:0.00%    MPKI:0.00
PC:20232     Total:43856      MisBP:0   MisRate:0.00%    MPKI:0.00
PC:20236     Total:58311      MisBP:0   MisRate:0.00%    MPKI:0.00
PC:16014     Total:346      MisBP:0   MisRate:0.00%    MPKI:0.00
PC:15e7a     Total:592      MisBP:0   MisRate:0.00%    MPKI:0.00
PC:2009c     Total:4116      MisBP:0   MisRate:0.00%    MPKI:0.00
PC:15e7c     Total:10017      MisBP:0   MisRate:0.00%    MPKI:0.00
PC:1e7ec     Total:6      MisBP:0   MisRate:0.00%    MPKI:0.00
PC:2023c     Total:58311      MisBP:0   MisRate:0.00%    MPKI:0.00
PC:1601a     Total:346      MisBP:0   MisRate:0.00%    MPKI:0.00
PC:200a0     Total:4116      MisBP:0   MisRate:0.00%    MPKI:0.00
PC:15e80     Total:9672      MisBP:0   MisRate:0.00%    MPKI:0.00
PC:200a2     Total:1      MisBP:0   MisRate:0.00%    MPKI:0.00
PC:200a4     Total:2      MisBP:0   MisRate:0.00%    MPKI:0.00
PC:16020     Total:37      MisBP:0   MisRate:0.00%    MPKI:0.00
PC:20244     Total:55121      MisBP:0   MisRate:0.00%    MPKI:0.00
PC:16022     Total:37      MisBP:0   MisRate:0.00%    MPKI:0.00
PC:200a8     Total:7      MisBP:0   MisRate:0.00%    MPKI:0.00
PC:15e88     Total:9672      MisBP:0   MisRate:0.00%    MPKI:0.00
PC:19798     Total:6225      MisBP:0   MisRate:0.00%    MPKI:0.00
PC:19786     Total:1083      MisBP:0   MisRate:0.00%    MPKI:0.00
PC:1e7c8     Total:6      MisBP:0   MisRate:0.00%    MPKI:0.00
PC:19788     Total:5825      MisBP:0   MisRate:0.00%    MPKI:0.00
PC:1e7ca     Total:6      MisBP:0   MisRate:0.00%    MPKI:0.00
PC:1978a     Total:5825      MisBP:0   MisRate:0.00%    MPKI:0.00
PC:1978c     Total:5825      MisBP:0   MisRate:0.00%    MPKI:0.00
PC:1e7ce     Total:6      MisBP:0   MisRate:0.00%    MPKI:0.00
PC:19790     Total:5825      MisBP:0   MisRate:0.00%    MPKI:0.00
PC:1e7d2     Total:6      MisBP:0   MisRate:0.00%    MPKI:0.00
PC:19796     Total:4894      MisBP:0   MisRate:0.00%    MPKI:0.00
PC:1e7d8     Total:6      MisBP:0   MisRate:0.00%    MPKI:0.00
PC:15772     Total:20      MisBP:0   MisRate:0.00%    MPKI:0.00
PC:1e7da     Total:6      MisBP:0   MisRate:0.00%    MPKI:0.00
PC:1979a     Total:6225      MisBP:0   MisRate:0.00%    MPKI:0.00
PC:1979c     Total:6067      MisBP:0   MisRate:0.00%    MPKI:0.00
PC:1e7de     Total:6      MisBP:0   MisRate:0.00%    MPKI:0.00
PC:197a0     Total:6067      MisBP:0   MisRate:0.00%    MPKI:0.00
PC:1e7e2     Total:6      MisBP:0   MisRate:0.00%    MPKI:0.00
PC:1e7e6     Total:6      MisBP:0   MisRate:0.00%    MPKI:0.00
PC:197a6     Total:4698      MisBP:0   MisRate:0.00%    MPKI:0.00
PC:1e7e8     Total:6      MisBP:0   MisRate:0.00%    MPKI:0.00
PC:197a8     Total:6696      MisBP:0   MisRate:0.00%    MPKI:0.00
PC:197aa     Total:6643      MisBP:0   MisRate:0.00%    MPKI:0.00
PC:1572c     Total:9139      MisBP:0   MisRate:0.00%    MPKI:0.00
PC:15700     Total:1722      MisBP:0   MisRate:0.00%    MPKI:0.00
PC:15702     Total:1722      MisBP:0   MisRate:0.00%    MPKI:0.00
PC:15706     Total:1722      MisBP:0   MisRate:0.00%    MPKI:0.00
PC:1570c     Total:833      MisBP:0   MisRate:0.00%    MPKI:0.00
PC:1570e     Total:9353      MisBP:0   MisRate:0.00%    MPKI:0.00
PC:15712     Total:9353      MisBP:0   MisRate:0.00%    MPKI:0.00
PC:15716     Total:9353      MisBP:0   MisRate:0.00%    MPKI:0.00
PC:15718     Total:9353      MisBP:0   MisRate:0.00%    MPKI:0.00
PC:1571c     Total:9353      MisBP:0   MisRate:0.00%    MPKI:0.00
PC:15720     Total:9353      MisBP:0   MisRate:0.00%    MPKI:0.00
PC:15724     Total:9353      MisBP:0   MisRate:0.00%    MPKI:0.00
PC:15728     Total:9139      MisBP:0   MisRate:0.00%    MPKI:0.00
PC:156fe     Total:1731      MisBP:0   MisRate:0.00%    MPKI:0.00
PC:15730     Total:9139      MisBP:0   MisRate:0.00%    MPKI:0.00
PC:15248     Total:3790      MisBP:0   MisRate:0.00%    MPKI:0.00
PC:1524e     Total:4443      MisBP:0   MisRate:0.00%    MPKI:0.00
PC:15254     Total:496      MisBP:0   MisRate:0.00%    MPKI:0.00
PC:15256     Total:496      MisBP:0   MisRate:0.00%    MPKI:0.00
PC:15274     Total:238      MisBP:0   MisRate:0.00%    MPKI:0.00
PC:1f720     Total:2      MisBP:0   MisRate:0.00%    MPKI:0.00
PC:154fe     Total:1949      MisBP:0   MisRate:0.00%    MPKI:0.00
PC:1f724     Total:2      MisBP:0   MisRate:0.00%    MPKI:0.00
PC:15502     Total:1949      MisBP:0   MisRate:0.00%    MPKI:0.00
PC:1f728     Total:2      MisBP:0   MisRate:0.00%    MPKI:0.00
PC:156ca     Total:1801      MisBP:0   MisRate:0.00%    MPKI:0.00
PC:157f2     Total:690      MisBP:0   MisRate:0.00%    MPKI:0.00
PC:42a44     Total:53      MisBP:0   MisRate:0.00%    MPKI:0.00
PC:157f4     Total:690      MisBP:0   MisRate:0.00%    MPKI:0.00
PC:42a46     Total:53      MisBP:0   MisRate:0.00%    MPKI:0.00
PC:1d29a     Total:184      MisBP:0   MisRate:0.00%    MPKI:0.00
PC:1d2a8     Total:184      MisBP:0   MisRate:0.00%    MPKI:0.00
PC:1d2b0     Total:650      MisBP:0   MisRate:0.00%    MPKI:0.00
PC:156b8     Total:1810      MisBP:0   MisRate:0.00%    MPKI:0.00
PC:156bc     Total:1810      MisBP:0   MisRate:0.00%    MPKI:0.00
PC:156c0     Total:1801      MisBP:0   MisRate:0.00%    MPKI:0.00
PC:156c4     Total:1801      MisBP:0   MisRate:0.00%    MPKI:0.00
PC:156c8     Total:1801      MisBP:0   MisRate:0.00%    MPKI:0.00
PC:15506     Total:1949      MisBP:0   MisRate:0.00%    MPKI:0.00
PC:156ce     Total:1801      MisBP:0   MisRate:0.00%    MPKI:0.00
PC:156d2     Total:1801      MisBP:0   MisRate:0.00%    MPKI:0.00
PC:156d8     Total:1801      MisBP:0   MisRate:0.00%    MPKI:0.00
PC:156dc     Total:1798      MisBP:0   MisRate:0.00%    MPKI:0.00
PC:156e0     Total:1798      MisBP:0   MisRate:0.00%    MPKI:0.00
PC:156e4     Total:1798      MisBP:0   MisRate:0.00%    MPKI:0.00
PC:156e8     Total:1798      MisBP:0   MisRate:0.00%    MPKI:0.00
PC:156ee     Total:1734      MisBP:0   MisRate:0.00%    MPKI:0.00
PC:156f2     Total:1734      MisBP:0   MisRate:0.00%    MPKI:0.00
PC:156f6     Total:1734      MisBP:0   MisRate:0.00%    MPKI:0.00
PC:156fa     Total:1731      MisBP:0   MisRate:0.00%    MPKI:0.00
PC:15752     Total:2803      MisBP:0   MisRate:0.00%    MPKI:0.00
PC:1573c     Total:8598      MisBP:0   MisRate:0.00%    MPKI:0.00
PC:15262     Total:496      MisBP:0   MisRate:0.00%    MPKI:0.00
PC:338c8     Total:226      MisBP:0   MisRate:0.00%    MPKI:0.00
PC:15740     Total:7821      MisBP:0   MisRate:0.00%    MPKI:0.00
PC:15266     Total:259      MisBP:0   MisRate:0.00%    MPKI:0.00
PC:338cc     Total:226      MisBP:0   MisRate:0.00%    MPKI:0.00
PC:15744     Total:7821      MisBP:0   MisRate:0.00%    MPKI:0.00
PC:1526a     Total:259      MisBP:0   MisRate:0.00%    MPKI:0.00
PC:338d0     Total:226      MisBP:0   MisRate:0.00%    MPKI:0.00
PC:15748     Total:7821      MisBP:0   MisRate:0.00%    MPKI:0.00
PC:1574c     Total:7821      MisBP:0   MisRate:0.00%    MPKI:0.00
PC:338d8     Total:166      MisBP:0   MisRate:0.00%    MPKI:0.00
PC:338c4     Total:269      MisBP:0   MisRate:0.00%    MPKI:0.00
PC:15278     Total:5649      MisBP:0   MisRate:0.00%    MPKI:0.00
PC:338de     Total:83      MisBP:0   MisRate:0.00%    MPKI:0.00
PC:15756     Total:2803      MisBP:0   MisRate:0.00%    MPKI:0.00
PC:1527c     Total:5649      MisBP:0   MisRate:0.00%    MPKI:0.00
PC:1575a     Total:2803      MisBP:0   MisRate:0.00%    MPKI:0.00
PC:1575e     Total:2799      MisBP:0   MisRate:0.00%    MPKI:0.00
PC:15760     Total:20      MisBP:0   MisRate:0.00%    MPKI:0.00
PC:15764     Total:20      MisBP:0   MisRate:0.00%    MPKI:0.00
PC:15768     Total:20      MisBP:0   MisRate:0.00%    MPKI:0.00
PC:1576c     Total:20      MisBP:0   MisRate:0.00%    MPKI:0.00
PC:15770     Total:20      MisBP:0   MisRate:0.00%    MPKI:0.00
PC:155ac     Total:1166      MisBP:0   MisRate:0.00%    MPKI:0.00
PC:1f72c     Total:2      MisBP:0   MisRate:0.00%    MPKI:0.00
PC:1550a     Total:1949      MisBP:0   MisRate:0.00%    MPKI:0.00
PC:1f730     Total:2      MisBP:0   MisRate:0.00%    MPKI:0.00
PC:1550e     Total:1949      MisBP:0   MisRate:0.00%    MPKI:0.00
PC:1f734     Total:2      MisBP:0   MisRate:0.00%    MPKI:0.00
PC:15512     Total:1749      MisBP:0   MisRate:0.00%    MPKI:0.00
PC:1f738     Total:2      MisBP:0   MisRate:0.00%    MPKI:0.00
PC:15516     Total:11609      MisBP:0   MisRate:0.00%    MPKI:0.00
PC:1f7ca     Total:3      MisBP:0   MisRate:0.00%    MPKI:0.00
PC:155a8     Total:1167      MisBP:0   MisRate:0.00%    MPKI:0.00
PC:1f7ce     Total:3      MisBP:0   MisRate:0.00%    MPKI:0.00
PC:1657c     Total:2011      MisBP:0   MisRate:0.00%    MPKI:0.00
PC:155b0     Total:1166      MisBP:0   MisRate:0.00%    MPKI:0.00
PC:1f7d6     Total:4      MisBP:0   MisRate:0.00%    MPKI:0.00
PC:155b4     Total:1166      MisBP:0   MisRate:0.00%    MPKI:0.00
PC:1f7da     Total:4      MisBP:0   MisRate:0.00%    MPKI:0.00
PC:155b8     Total:1162      MisBP:0   MisRate:0.00%    MPKI:0.00
PC:1f7dc     Total:4      MisBP:0   MisRate:0.00%    MPKI:0.00
PC:15734     Total:9138      MisBP:0   MisRate:0.00%    MPKI:0.00
PC:1525a     Total:496      MisBP:0   MisRate:0.00%    MPKI:0.00
PC:338c0     Total:1614      MisBP:0   MisRate:0.00%    MPKI:0.00
PC:15738     Total:9138      MisBP:0   MisRate:0.00%    MPKI:0.00
PC:1525e     Total:496      MisBP:0   MisRate:0.00%    MPKI:0.00
PC:406b2     Total:118      MisBP:0   MisRate:0.00%    MPKI:0.00
PC:406a2     Total:70      MisBP:0   MisRate:0.00%    MPKI:0.00
PC:1d4d6     Total:9000      MisBP:0   MisRate:0.00%    MPKI:0.00
PC:406a4     Total:70      MisBP:0   MisRate:0.00%    MPKI:0.00
PC:1d4d8     Total:9000      MisBP:0   MisRate:0.00%    MPKI:0.00
[...]
PC:18c1a     Total:26256      MisBP:2039   MisRate:7.77%    MPKI:0.01
PC:152b8     Total:9620      MisBP:2044   MisRate:21.25%    MPKI:0.01
PC:1ffa6     Total:3948      MisBP:2061   MisRate:52.20%    MPKI:0.01
PC:191dc     Total:50482      MisBP:2073   MisRate:4.11%    MPKI:0.01
PC:1c9e8     Total:30070      MisBP:2123   MisRate:7.06%    MPKI:0.01
PC:19506     Total:65351      MisBP:2126   MisRate:3.25%    MPKI:0.01
PC:2003a     Total:23560      MisBP:2129   MisRate:9.04%    MPKI:0.01
PC:19270     Total:46359      MisBP:2177   MisRate:4.70%    MPKI:0.01
PC:1db80     Total:52756      MisBP:2223   MisRate:4.21%    MPKI:0.01
PC:15ae0     Total:7138      MisBP:2226   MisRate:31.19%    MPKI:0.01
PC:196b0     Total:39816      MisBP:2291   MisRate:5.75%    MPKI:0.01
PC:14d7e     Total:6592      MisBP:2294   MisRate:34.80%    MPKI:0.01
PC:123a0     Total:45129      MisBP:2296   MisRate:5.09%    MPKI:0.01
PC:1ff06     Total:324651      MisBP:2308   MisRate:0.71%    MPKI:0.01
PC:18f3c     Total:32024      MisBP:2318   MisRate:7.24%    MPKI:0.01
PC:12382     Total:126594      MisBP:2342   MisRate:1.85%    MPKI:0.01
PC:18eee     Total:13541      MisBP:2370   MisRate:17.50%    MPKI:0.01
PC:1d6b8     Total:10383      MisBP:2405   MisRate:23.16%    MPKI:0.01
PC:17274     Total:14641      MisBP:2429   MisRate:16.59%    MPKI:0.01
PC:18c4a     Total:23893      MisBP:2434   MisRate:10.19%    MPKI:0.01
PC:1db6c     Total:65385      MisBP:2452   MisRate:3.75%    MPKI:0.01
PC:172d6     Total:413590      MisBP:2457   MisRate:0.59%    MPKI:0.01
PC:1728c     Total:39369      MisBP:2504   MisRate:6.36%    MPKI:0.01
PC:14d34     Total:129950      MisBP:2506   MisRate:1.93%    MPKI:0.01
PC:16e34     Total:38119      MisBP:2521   MisRate:6.61%    MPKI:0.01
PC:1d1d4     Total:89138      MisBP:2577   MisRate:2.89%    MPKI:0.01
PC:1d7b8     Total:9715      MisBP:2631   MisRate:27.08%    MPKI:0.01
PC:18116     Total:125003      MisBP:2633   MisRate:2.11%    MPKI:0.01
PC:1946c     Total:20007      MisBP:2646   MisRate:13.23%    MPKI:0.01
PC:12d5e     Total:33770      MisBP:2656   MisRate:7.86%    MPKI:0.01
PC:1ffb4     Total:14015      MisBP:2668   MisRate:19.04%    MPKI:0.01
PC:19a00     Total:10823      MisBP:2682   MisRate:24.78%    MPKI:0.01
PC:1ff92     Total:504629      MisBP:2692   MisRate:0.53%    MPKI:0.01
PC:18f72     Total:27284      MisBP:2711   MisRate:9.94%    MPKI:0.01
PC:197c8     Total:40122      MisBP:2717   MisRate:6.77%    MPKI:0.01
PC:15302     Total:6842      MisBP:2724   MisRate:39.81%    MPKI:0.01
PC:18ed6     Total:14607      MisBP:2730   MisRate:18.69%    MPKI:0.01
PC:12398     Total:51242      MisBP:2787   MisRate:5.44%    MPKI:0.01
PC:1fe94     Total:332159      MisBP:2829   MisRate:0.85%    MPKI:0.01
PC:1d802     Total:16259      MisBP:2829   MisRate:17.40%    MPKI:0.01
PC:175f6     Total:423524      MisBP:2871   MisRate:0.68%    MPKI:0.01
PC:1d71c     Total:11120      MisBP:2889   MisRate:25.98%    MPKI:0.01
PC:173a6     Total:33168      MisBP:2919   MisRate:8.80%    MPKI:0.01
PC:1d908     Total:6285      MisBP:2938   MisRate:46.75%    MPKI:0.01
PC:1d9d0     Total:93905      MisBP:2985   MisRate:3.18%    MPKI:0.01
PC:1732e     Total:23178      MisBP:2989   MisRate:12.90%    MPKI:0.01
PC:1522a     Total:8682      MisBP:3019   MisRate:34.77%    MPKI:0.01
PC:15ac0     Total:27873      MisBP:3030   MisRate:10.87%    MPKI:0.01
PC:177c8     Total:17177      MisBP:3049   MisRate:17.75%    MPKI:0.01
PC:20054     Total:24197      MisBP:3081   MisRate:12.73%    MPKI:0.01
PC:13a22     Total:46207      MisBP:3110   MisRate:6.73%    MPKI:0.01
PC:153ac     Total:7679      MisBP:3133   MisRate:40.80%    MPKI:0.01
PC:1cfbe     Total:47446      MisBP:3156   MisRate:6.65%    MPKI:0.01
PC:167fe     Total:23685      MisBP:3169   MisRate:13.38%    MPKI:0.01
PC:188f0     Total:140964      MisBP:3177   MisRate:2.25%    MPKI:0.01
PC:2104e     Total:18249      MisBP:3178   MisRate:17.41%    MPKI:0.01
PC:1d6e0     Total:72988      MisBP:3188   MisRate:4.37%    MPKI:0.01
PC:179f0     Total:23125      MisBP:3198   MisRate:13.83%    MPKI:0.01
PC:19800     Total:43081      MisBP:3198   MisRate:7.42%    MPKI:0.01
PC:174ee     Total:100330      MisBP:3263   MisRate:3.25%    MPKI:0.01
PC:1d228     Total:27702      MisBP:3310   MisRate:11.95%    MPKI:0.01
PC:17266     Total:28055      MisBP:3371   MisRate:12.02%    MPKI:0.01
PC:17630     Total:26031      MisBP:3385   MisRate:13.00%    MPKI:0.01
PC:12dba     Total:32648      MisBP:3425   MisRate:10.49%    MPKI:0.01
PC:14eae     Total:36694      MisBP:3471   MisRate:9.46%    MPKI:0.01
PC:1d6fe     Total:56237      MisBP:3472   MisRate:6.17%    MPKI:0.01
PC:122ce     Total:463915      MisBP:3479   MisRate:0.75%    MPKI:0.01
PC:2026c     Total:56864      MisBP:3561   MisRate:6.26%    MPKI:0.01
PC:153f8     Total:31244      MisBP:3567   MisRate:11.42%    MPKI:0.01
PC:173c0     Total:27032      MisBP:3569   MisRate:13.20%    MPKI:0.01
PC:17f7c     Total:150886      MisBP:3610   MisRate:2.39%    MPKI:0.01
PC:1da8e     Total:8860      MisBP:3683   MisRate:41.57%    MPKI:0.01
PC:1db52     Total:68294      MisBP:3733   MisRate:5.47%    MPKI:0.01
PC:1952e     Total:51408      MisBP:3770   MisRate:7.33%    MPKI:0.01
PC:175e6     Total:28430      MisBP:3789   MisRate:13.33%    MPKI:0.01
PC:1904a     Total:33435      MisBP:3796   MisRate:11.35%    MPKI:0.01
PC:18714     Total:68560      MisBP:3828   MisRate:5.58%    MPKI:0.01
PC:159e0     Total:59496      MisBP:3899   MisRate:6.55%    MPKI:0.01
PC:12274     Total:103243      MisBP:3918   MisRate:3.79%    MPKI:0.01
PC:1ff16     Total:300069      MisBP:3999   MisRate:1.33%    MPKI:0.01
PC:155ea     Total:28879      MisBP:4011   MisRate:13.89%    MPKI:0.01
PC:18efe     Total:45060      MisBP:4026   MisRate:8.93%    MPKI:0.01
PC:16e00     Total:68059      MisBP:4056   MisRate:5.96%    MPKI:0.01
PC:17856     Total:95009      MisBP:4057   MisRate:4.27%    MPKI:0.01
PC:16768     Total:46821      MisBP:4090   MisRate:8.74%    MPKI:0.01
PC:19914     Total:25522      MisBP:4109   MisRate:16.10%    MPKI:0.01
PC:122ec     Total:150386      MisBP:4129   MisRate:2.75%    MPKI:0.01
PC:1d36e     Total:8731      MisBP:4137   MisRate:47.38%    MPKI:0.01
PC:1994e     Total:33244      MisBP:4141   MisRate:12.46%    MPKI:0.01
PC:1d368     Total:46254      MisBP:4168   MisRate:9.01%    MPKI:0.01
PC:192bc     Total:42293      MisBP:4172   MisRate:9.86%    MPKI:0.01
PC:1feaa     Total:308674      MisBP:4216   MisRate:1.37%    MPKI:0.01
PC:197e0     Total:41799      MisBP:4244   MisRate:10.15%    MPKI:0.01
PC:20004     Total:14099      MisBP:4252   MisRate:30.16%    MPKI:0.01
PC:1cfb4     Total:47416      MisBP:4352   MisRate:9.18%    MPKI:0.01
PC:17624     Total:25153      MisBP:4364   MisRate:17.35%    MPKI:0.01
PC:1ccb6     Total:32219      MisBP:4397   MisRate:13.65%    MPKI:0.01
PC:19186     Total:104023      MisBP:4442   MisRate:4.27%    MPKI:0.01
PC:19490     Total:39624      MisBP:4446   MisRate:11.22%    MPKI:0.01
PC:1827a     Total:26849      MisBP:4503   MisRate:16.77%    MPKI:0.01
PC:1ff02     Total:328032      MisBP:4560   MisRate:1.39%    MPKI:0.01
PC:19460     Total:39345      MisBP:4563   MisRate:11.60%    MPKI:0.01
PC:1ff20     Total:297284      MisBP:4587   MisRate:1.54%    MPKI:0.01
PC:16658     Total:126986      MisBP:4597   MisRate:3.62%    MPKI:0.01
PC:195f0     Total:31924      MisBP:4688   MisRate:14.68%    MPKI:0.02
PC:1750a     Total:98827      MisBP:4745   MisRate:4.80%    MPKI:0.02
PC:15c9a     Total:37127      MisBP:4783   MisRate:12.88%    MPKI:0.02
PC:1fea0     Total:312188      MisBP:4784   MisRate:1.53%    MPKI:0.02
PC:17842     Total:93646      MisBP:4814   MisRate:5.14%    MPKI:0.02
PC:1cd2a     Total:52392      MisBP:4874   MisRate:9.30%    MPKI:0.02
PC:189da     Total:125518      MisBP:4930   MisRate:3.93%    MPKI:0.02
PC:1cd4a     Total:45007      MisBP:4953   MisRate:11.00%    MPKI:0.02
PC:1937e     Total:62359      MisBP:4981   MisRate:7.99%    MPKI:0.02
PC:199a6     Total:48704      MisBP:5049   MisRate:10.37%    MPKI:0.02
PC:153d2     Total:11968      MisBP:5067   MisRate:42.34%    MPKI:0.02
PC:1ff0c     Total:322515      MisBP:5399   MisRate:1.67%    MPKI:0.02
PC:18098     Total:43677      MisBP:5402   MisRate:12.37%    MPKI:0.02
PC:18eb4     Total:52292      MisBP:5477   MisRate:10.47%    MPKI:0.02
PC:14eb8     Total:21276      MisBP:5487   MisRate:25.79%    MPKI:0.02
PC:1d4a0     Total:34889      MisBP:5495   MisRate:15.75%    MPKI:0.02
PC:1915c     Total:156041      MisBP:5593   MisRate:3.58%    MPKI:0.02
PC:1dbae     Total:57428      MisBP:5596   MisRate:9.74%    MPKI:0.02
PC:19678     Total:36524      MisBP:5667   MisRate:15.52%    MPKI:0.02
PC:1919c     Total:85150      MisBP:5696   MisRate:6.69%    MPKI:0.02
PC:198d0     Total:35633      MisBP:5723   MisRate:16.06%    MPKI:0.02
PC:19358     Total:73287      MisBP:5762   MisRate:7.86%    MPKI:0.02
PC:1ff84     Total:471282      MisBP:5816   MisRate:1.23%    MPKI:0.02
PC:123c2     Total:41278      MisBP:5829   MisRate:14.12%    MPKI:0.02
PC:211be     Total:46677      MisBP:6090   MisRate:13.05%    MPKI:0.02
PC:1da88     Total:82283      MisBP:6111   MisRate:7.43%    MPKI:0.02
PC:1ff2e     Total:382961      MisBP:6123   MisRate:1.60%    MPKI:0.02
PC:19342     Total:133014      MisBP:6231   MisRate:4.68%    MPKI:0.02
PC:18ee8     Total:43634      MisBP:6337   MisRate:14.52%    MPKI:0.02
PC:1fe8e     Total:336797      MisBP:6551   MisRate:1.95%    MPKI:0.02
PC:16d72     Total:176238      MisBP:6666   MisRate:3.78%    MPKI:0.02
PC:1229e     Total:502865      MisBP:6697   MisRate:1.33%    MPKI:0.02
PC:19180     Total:126126      MisBP:6782   MisRate:5.38%    MPKI:0.02
PC:1958e     Total:66786      MisBP:6840   MisRate:10.24%    MPKI:0.02
PC:16f7e     Total:90753      MisBP:6842   MisRate:7.54%    MPKI:0.02
PC:198dc     Total:28968      MisBP:6848   MisRate:23.64%    MPKI:0.02
PC:159e8     Total:23640      MisBP:6900   MisRate:29.19%    MPKI:0.02
PC:19554     Total:75484      MisBP:7007   MisRate:9.28%    MPKI:0.02
PC:2010e     Total:64241      MisBP:7063   MisRate:10.99%    MPKI:0.02
PC:1d58a     Total:40891      MisBP:7149   MisRate:17.48%    MPKI:0.02
PC:189ee     Total:95995      MisBP:7168   MisRate:7.47%    MPKI:0.02
PC:1fefe     Total:358654      MisBP:7198   MisRate:2.01%    MPKI:0.02
PC:1d50a     Total:50941      MisBP:7236   MisRate:14.20%    MPKI:0.02
PC:123a4     Total:36317      MisBP:7372   MisRate:20.30%    MPKI:0.02
PC:1cb22     Total:478833      MisBP:7384   MisRate:1.54%    MPKI:0.02
PC:193b0     Total:85514      MisBP:7452   MisRate:8.71%    MPKI:0.02
PC:12284     Total:428961      MisBP:7455   MisRate:1.74%    MPKI:0.02
PC:194ee     Total:121186      MisBP:7526   MisRate:6.21%    MPKI:0.02
PC:122e4     Total:204493      MisBP:7535   MisRate:3.68%    MPKI:0.02
PC:1dbfa     Total:30110      MisBP:7553   MisRate:25.08%    MPKI:0.02
PC:16660     Total:159452      MisBP:7569   MisRate:4.75%    MPKI:0.02
PC:14d5e     Total:128142      MisBP:7750   MisRate:6.05%    MPKI:0.02
PC:1d0f8     Total:39842      MisBP:7775   MisRate:19.51%    MPKI:0.03
PC:1da5a     Total:139604      MisBP:7928   MisRate:5.68%    MPKI:0.03
PC:1560c     Total:44764      MisBP:7946   MisRate:17.75%    MPKI:0.03
PC:1d570     Total:19757      MisBP:7960   MisRate:40.29%    MPKI:0.03
PC:1ff34     Total:378451      MisBP:8059   MisRate:2.13%    MPKI:0.03
PC:18abe     Total:286157      MisBP:8070   MisRate:2.82%    MPKI:0.03
PC:12350     Total:196949      MisBP:8090   MisRate:4.11%    MPKI:0.03
PC:191f8     Total:45814      MisBP:8124   MisRate:17.73%    MPKI:0.03
PC:18b00     Total:16463      MisBP:8178   MisRate:49.68%    MPKI:0.03
PC:20258     Total:55115      MisBP:8338   MisRate:15.13%    MPKI:0.03
PC:19368     Total:71207      MisBP:8464   MisRate:11.89%    MPKI:0.03
PC:14d64     Total:98884      MisBP:8838   MisRate:8.94%    MPKI:0.03
PC:1d5ac     Total:40278      MisBP:8932   MisRate:22.18%    MPKI:0.03
PC:12342     Total:75661      MisBP:8959   MisRate:11.84%    MPKI:0.03
PC:18acc     Total:284554      MisBP:9006   MisRate:3.16%    MPKI:0.03
PC:1febc     Total:554497      MisBP:9014   MisRate:1.63%    MPKI:0.03
PC:17b82     Total:67113      MisBP:9053   MisRate:13.49%    MPKI:0.03
PC:175f0     Total:435632      MisBP:9358   MisRate:2.15%    MPKI:0.03
PC:1d004     Total:20160      MisBP:9651   MisRate:47.87%    MPKI:0.03
PC:12292     Total:273807      MisBP:9963   MisRate:3.64%    MPKI:0.03
PC:123b0     Total:112392      MisBP:10126   MisRate:9.01%    MPKI:0.03
PC:193dc     Total:46398      MisBP:10194   MisRate:21.97%    MPKI:0.03
PC:17afa     Total:81138      MisBP:10225   MisRate:12.60%    MPKI:0.03
PC:18bdc     Total:41362      MisBP:10313   MisRate:24.93%    MPKI:0.03
PC:171d0     Total:34707      MisBP:10711   MisRate:30.86%    MPKI:0.03
PC:17280     Total:442283      MisBP:10818   MisRate:2.45%    MPKI:0.03
PC:1d51a     Total:29850      MisBP:10850   MisRate:36.35%    MPKI:0.03
PC:19330     Total:187360      MisBP:10865   MisRate:5.80%    MPKI:0.04
PC:17f34     Total:162121      MisBP:11431   MisRate:7.05%    MPKI:0.04
PC:188c2     Total:160099      MisBP:11741   MisRate:7.33%    MPKI:0.04
PC:18e00     Total:853091      MisBP:12014   MisRate:1.41%    MPKI:0.04
PC:16f8e     Total:156272      MisBP:12283   MisRate:7.86%    MPKI:0.04
PC:166e0     Total:179326      MisBP:12387   MisRate:6.91%    MPKI:0.04
PC:1fe98     Total:321113      MisBP:12423   MisRate:3.87%    MPKI:0.04
PC:17320     Total:54388      MisBP:12556   MisRate:23.09%    MPKI:0.04
PC:1506e     Total:27462      MisBP:12591   MisRate:45.85%    MPKI:0.04
PC:201ca     Total:61195      MisBP:12631   MisRate:20.64%    MPKI:0.04
PC:1d1ae     Total:108496      MisBP:12819   MisRate:11.82%    MPKI:0.04
PC:1fec2     Total:516807      MisBP:13436   MisRate:2.60%    MPKI:0.04
PC:122fa     Total:252724      MisBP:13724   MisRate:5.43%    MPKI:0.04
PC:1811c     Total:163576      MisBP:13780   MisRate:8.42%    MPKI:0.04
PC:1724a     Total:72353      MisBP:13853   MisRate:19.15%    MPKI:0.04
PC:3334c     Total:91961      MisBP:13906   MisRate:15.12%    MPKI:0.04
PC:1916c     Total:137158      MisBP:14105   MisRate:10.28%    MPKI:0.05
PC:123be     Total:130759      MisBP:14314   MisRate:10.95%    MPKI:0.05
PC:1230a     Total:278941      MisBP:14663   MisRate:5.26%    MPKI:0.05
PC:15a8a     Total:35788      MisBP:14913   MisRate:41.67%    MPKI:0.05
PC:172f8     Total:357932      MisBP:14986   MisRate:4.19%    MPKI:0.05
PC:17f76     Total:165087      MisBP:15054   MisRate:9.12%    MPKI:0.05
PC:12334     Total:151322      MisBP:15062   MisRate:9.95%    MPKI:0.05
PC:1cac0     Total:449866      MisBP:15503   MisRate:3.45%    MPKI:0.05
PC:1d1ec     Total:82930      MisBP:15783   MisRate:19.03%    MPKI:0.05
PC:1cff8     Total:50148      MisBP:16554   MisRate:33.01%    MPKI:0.05
PC:1230e     Total:169070      MisBP:16747   MisRate:9.91%    MPKI:0.05
PC:1caee     Total:458037      MisBP:16780   MisRate:3.66%    MPKI:0.05
PC:1231e     Total:150502      MisBP:16906   MisRate:11.23%    MPKI:0.05
PC:15028     Total:29755      MisBP:17375   MisRate:58.39%    MPKI:0.06
PC:174d8     Total:93817      MisBP:17629   MisRate:18.79%    MPKI:0.06
PC:16f66     Total:306370      MisBP:17930   MisRate:5.85%    MPKI:0.06
PC:1666a     Total:140462      MisBP:18407   MisRate:13.10%    MPKI:0.06
PC:1ff0e     Total:317661      MisBP:18741   MisRate:5.90%    MPKI:0.06
PC:19518     Total:112892      MisBP:18884   MisRate:16.73%    MPKI:0.06
PC:1782c     Total:99281      MisBP:18971   MisRate:19.11%    MPKI:0.06
PC:18aae     Total:269957      MisBP:19819   MisRate:7.34%    MPKI:0.06
PC:17224     Total:375958      MisBP:20636   MisRate:5.49%    MPKI:0.07
PC:122f0     Total:143640      MisBP:21511   MisRate:14.98%    MPKI:0.07
PC:16510     Total:149929      MisBP:22615   MisRate:15.08%    MPKI:0.07
PC:1cad8     Total:458028      MisBP:23310   MisRate:5.09%    MPKI:0.08
PC:18006     Total:157616      MisBP:23569   MisRate:14.95%    MPKI:0.08
PC:16508     Total:160914      MisBP:24413   MisRate:15.17%    MPKI:0.08
PC:1ff24     Total:294230      MisBP:26424   MisRate:8.98%    MPKI:0.09
PC:18c72     Total:509544      MisBP:28080   MisRate:5.51%    MPKI:0.09
PC:122a2     Total:496780      MisBP:28444   MisRate:5.73%    MPKI:0.09
PC:1ca7e     Total:141194      MisBP:29655   MisRate:21.00%    MPKI:0.10
PC:17110     Total:1577323      MisBP:30268   MisRate:1.92%    MPKI:0.10
PC:1ff56     Total:312895      MisBP:31154   MisRate:9.96%    MPKI:0.10
PC:1235e     Total:232758      MisBP:31504   MisRate:13.54%    MPKI:0.10
PC:18d0c     Total:534593      MisBP:34033   MisRate:6.37%    MPKI:0.11
PC:122fe     Total:220189      MisBP:34318   MisRate:15.59%    MPKI:0.11
PC:1720c     Total:414936      MisBP:34899   MisRate:8.41%    MPKI:0.11
PC:187c6     Total:303296      MisBP:36898   MisRate:12.17%    MPKI:0.12
PC:12296     Total:256665      MisBP:37724   MisRate:14.70%    MPKI:0.12
PC:18d4e     Total:528613      MisBP:37819   MisRate:7.15%    MPKI:0.12
PC:1cb02     Total:467558      MisBP:37877   MisRate:8.10%    MPKI:0.12
PC:1fede     Total:289623      MisBP:39351   MisRate:13.59%    MPKI:0.13
PC:16f6a     Total:224143      MisBP:40734   MisRate:18.17%    MPKI:0.13
PC:1feb0     Total:299423      MisBP:43392   MisRate:14.49%    MPKI:0.14
PC:1d9c4     Total:2517787      MisBP:47142   MisRate:1.87%    MPKI:0.15
PC:122b6     Total:482935      MisBP:49069   MisRate:10.16%    MPKI:0.16
PC:172de     Total:411825      MisBP:49160   MisRate:11.94%    MPKI:0.16
PC:1ca5a     Total:463661      MisBP:50095   MisRate:10.80%    MPKI:0.16
PC:18d18     Total:1568287      MisBP:52407   MisRate:3.34%    MPKI:0.17
PC:187f2     Total:480790      MisBP:52778   MisRate:10.98%    MPKI:0.17
PC:187d8     Total:374442      MisBP:55592   MisRate:14.85%    MPKI:0.18
PC:18e26     Total:730874      MisBP:55886   MisRate:7.65%    MPKI:0.18
PC:1fec8     Total:511012      MisBP:59134   MisRate:11.57%    MPKI:0.19
PC:18d3e     Total:770806      MisBP:59855   MisRate:7.77%    MPKI:0.19
PC:18804     Total:458420      MisBP:60858   MisRate:13.28%    MPKI:0.20
PC:17146     Total:289837      MisBP:61406   MisRate:21.19%    MPKI:0.20
PC:1ff38     Total:375689      MisBP:65040   MisRate:17.31%    MPKI:0.21
PC:1feda     Total:698359      MisBP:69421   MisRate:9.94%    MPKI:0.22
PC:17226     Total:283211      MisBP:70013   MisRate:24.72%    MPKI:0.23
PC:1228a     Total:424277      MisBP:70893   MisRate:16.71%    MPKI:0.23
PC:1ff4c     Total:527430      MisBP:70954   MisRate:13.45%    MPKI:0.23
PC:172fc     Total:326903      MisBP:71065   MisRate:21.74%    MPKI:0.23
PC:1d1a8     Total:478806      MisBP:76452   MisRate:15.97%    MPKI:0.25
PC:18800     Total:454159      MisBP:82120   MisRate:18.08%    MPKI:0.26
PC:18e0a     Total:856867      MisBP:86762   MisRate:10.13%    MPKI:0.28
PC:122b0     Total:608361      MisBP:87549   MisRate:14.39%    MPKI:0.28
PC:189a6     Total:945128      MisBP:92679   MisRate:9.81%    MPKI:0.30
PC:22f70     Total:169799      MisBP:103679   MisRate:61.06%    MPKI:0.33
PC:18d38     Total:1229618      MisBP:111865   MisRate:9.10%    MPKI:0.36
PC:18894     Total:1117491      MisBP:116267   MisRate:10.40%    MPKI:0.38
PC:18e4e     Total:714312      MisBP:120887   MisRate:16.92%    MPKI:0.39
PC:189b8     Total:993005      MisBP:136552   MisRate:13.75%    MPKI:0.44
PC:188a6     Total:1186711      MisBP:155919   MisRate:13.14%    MPKI:0.50
PC:18d20     Total:1571313      MisBP:156225   MisRate:9.94%    MPKI:0.50
PC:1712c     Total:1497132      MisBP:169132   MisRate:11.30%    MPKI:0.55
PC:189b4     Total:1452487      MisBP:184534   MisRate:12.70%    MPKI:0.60
PC:187d4     Total:1740211      MisBP:271197   MisRate:15.58%    MPKI:0.87
PC:17136     Total:1793245      MisBP:274472   MisRate:15.31%    MPKI:0.89
PC:188a2     Total:2769078      MisBP:318566   MisRate:11.50%    MPKI:1.03
Totfetch:562007239  TotInsts:310000002  TotMis : inf%   MPKI : 19.53
=============finish sim!!!!!!=============
Done running SimPoint!
