Global frequency set at 1000000000000 ticks per second
 Register [printBranch()] ExitCallback !!!!!!! 
gem5 Simulator System.  https://www.gem5.org
gem5 is copyrighted software; use the --copyright option for details.

gem5 version 22.0.0.2
gem5 compiled Sep  7 2022 00:42:18
gem5 started Sep  7 2022 02:35:31
gem5 executing on a100, pid 2741768
command line: /data/zxf/gem5/gem5-prof/build/ARM/gem5.fast --outdir=/data/zxf/checkpoint/spec2006/473.astar/prof/astar_ckp_3 /data/zxf/gem5/gem5-prof/configs/example/se.py --cpu-type O3CPU --cpu-clock 1GHz --num-cpu 1 --l1d-hwp-type=BOPPrefetcher --caches --l2cache --l1i_size 32kB --l1d_size 32kB --l2_size 1MB --l1i_assoc 8 --l1d_assoc 8 --l2_assoc 16 --cacheline_size 64 --mem-type DDR3_2133_8x8 --mem-size 16GB --restore-simpoint-checkpoint -r 3 --checkpoint-dir /data/zxf/checkpoint/spec2006/473.astar/ckpt -c astar_base.gcc41-64bit -o rivers.cfg

info: Standard input is not a terminal, disabling listeners.
Resuming from /data/zxf/checkpoint/spec2006/473.astar/ckpt/cpt.simpoint_02_inst_102290000000_weight_0.048249_interval_300000000_warmup_10000000
Resuming from SimPoint #2, start_inst:102290000000, weight:0.048249, interval:300000000, warmup:10000000
Switch at curTick count:10000
Switched CPUS @ tick 68426502019000
[(<m5.objects.ArmCPU.ArmAtomicSimpleCPU object at 0x7f9f26a1cbb0>, <m5.objects.ArmCPU.ArmO3CPU object at 0x7f9f26a34e20>)]
switching cpus



+++++++++++++++++++++++++zxf print simpoint+++++++++++++++++++++++++++
Warmed up! Dumping and resetting stats!


=============start sim!!!!!!=============
PC:1168c     Total:9014      MisBP:0   MisRate:0.00%    MPKI:0.00
PC:4a9da     Total:2      MisBP:0   MisRate:0.00%    MPKI:0.00
PC:2f4b0     Total:12      MisBP:0   MisRate:0.00%    MPKI:0.00
PC:115f6     Total:18707      MisBP:0   MisRate:0.00%    MPKI:0.00
PC:2cb22     Total:20      MisBP:0   MisRate:0.00%    MPKI:0.00
PC:115f8     Total:18702      MisBP:0   MisRate:0.00%    MPKI:0.00
PC:2cb26     Total:20      MisBP:0   MisRate:0.00%    MPKI:0.00
PC:115fc     Total:18670      MisBP:0   MisRate:0.00%    MPKI:0.00
PC:115fe     Total:18658      MisBP:0   MisRate:0.00%    MPKI:0.00
PC:11688     Total:9014      MisBP:0   MisRate:0.00%    MPKI:0.00
PC:2cb16     Total:20      MisBP:0   MisRate:0.00%    MPKI:0.00
PC:1168e     Total:9014      MisBP:0   MisRate:0.00%    MPKI:0.00
PC:11692     Total:9014      MisBP:0   MisRate:0.00%    MPKI:0.00
PC:11696     Total:9013      MisBP:0   MisRate:0.00%    MPKI:0.00
PC:11698     Total:13953      MisBP:0   MisRate:0.00%    MPKI:0.00
PC:1169c     Total:13953      MisBP:0   MisRate:0.00%    MPKI:0.00
PC:116a0     Total:13953      MisBP:0   MisRate:0.00%    MPKI:0.00
PC:116a4     Total:13755      MisBP:0   MisRate:0.00%    MPKI:0.00
PC:116a8     Total:13755      MisBP:0   MisRate:0.00%    MPKI:0.00
PC:116aa     Total:13754      MisBP:0   MisRate:0.00%    MPKI:0.00
PC:115da     Total:25370      MisBP:0   MisRate:0.00%    MPKI:0.00
PC:11772     Total:6592      MisBP:0   MisRate:0.00%    MPKI:0.00
PC:11774     Total:6588      MisBP:0   MisRate:0.00%    MPKI:0.00
PC:2f460     Total:23      MisBP:0   MisRate:0.00%    MPKI:0.00
PC:11778     Total:6586      MisBP:0   MisRate:0.00%    MPKI:0.00
PC:2caf6     Total:26      MisBP:0   MisRate:0.00%    MPKI:0.00
PC:115cc     Total:25879      MisBP:0   MisRate:0.00%    MPKI:0.00
PC:115ce     Total:25869      MisBP:0   MisRate:0.00%    MPKI:0.00
PC:115d2     Total:25869      MisBP:0   MisRate:0.00%    MPKI:0.00
PC:2cb04     Total:22      MisBP:0   MisRate:0.00%    MPKI:0.00
PC:116ac     Total:13748      MisBP:0   MisRate:0.00%    MPKI:0.00
PC:2cb0a     Total:22      MisBP:0   MisRate:0.00%    MPKI:0.00
PC:115e0     Total:25356      MisBP:0   MisRate:0.00%    MPKI:0.00
PC:115e2     Total:25356      MisBP:0   MisRate:0.00%    MPKI:0.00
PC:115e6     Total:25348      MisBP:0   MisRate:0.00%    MPKI:0.00
PC:4a9d4     Total:2      MisBP:0   MisRate:0.00%    MPKI:0.00
PC:2f4aa     Total:8      MisBP:0   MisRate:0.00%    MPKI:0.00
PC:4a9d8     Total:2      MisBP:0   MisRate:0.00%    MPKI:0.00
PC:2f4ae     Total:4      MisBP:0   MisRate:0.00%    MPKI:0.00
PC:11708     Total:7082      MisBP:0   MisRate:0.00%    MPKI:0.00
PC:116ea     Total:10689      MisBP:0   MisRate:0.00%    MPKI:0.00
PC:116f0     Total:7566      MisBP:0   MisRate:0.00%    MPKI:0.00
PC:116f4     Total:7566      MisBP:0   MisRate:0.00%    MPKI:0.00
PC:116f8     Total:7566      MisBP:0   MisRate:0.00%    MPKI:0.00
PC:116fa     Total:7565      MisBP:0   MisRate:0.00%    MPKI:0.00
PC:116fc     Total:7554      MisBP:0   MisRate:0.00%    MPKI:0.00
PC:116fe     Total:7554      MisBP:0   MisRate:0.00%    MPKI:0.00
PC:11700     Total:7214      MisBP:0   MisRate:0.00%    MPKI:0.00
PC:11706     Total:7083      MisBP:0   MisRate:0.00%    MPKI:0.00
PC:116e8     Total:10690      MisBP:0   MisRate:0.00%    MPKI:0.00
PC:1170a     Total:7078      MisBP:0   MisRate:0.00%    MPKI:0.00
PC:1170c     Total:7076      MisBP:0   MisRate:0.00%    MPKI:0.00
PC:11712     Total:6019      MisBP:0   MisRate:0.00%    MPKI:0.00
PC:11718     Total:5939      MisBP:0   MisRate:0.00%    MPKI:0.00
PC:11724     Total:5624      MisBP:0   MisRate:0.00%    MPKI:0.00
PC:1172c     Total:5549      MisBP:0   MisRate:0.00%    MPKI:0.00
PC:2cb2a     Total:20      MisBP:0   MisRate:0.00%    MPKI:0.00
PC:11600     Total:17816      MisBP:0   MisRate:0.00%    MPKI:0.00
PC:116cc     Total:11186      MisBP:0   MisRate:0.00%    MPKI:0.00
PC:116ae     Total:13746      MisBP:0   MisRate:0.00%    MPKI:0.00
PC:116b0     Total:13640      MisBP:0   MisRate:0.00%    MPKI:0.00
PC:116b2     Total:13638      MisBP:0   MisRate:0.00%    MPKI:0.00
PC:116b6     Total:11861      MisBP:0   MisRate:0.00%    MPKI:0.00
PC:116ba     Total:11861      MisBP:0   MisRate:0.00%    MPKI:0.00
PC:116be     Total:11249      MisBP:0   MisRate:0.00%    MPKI:0.00
PC:116c2     Total:11221      MisBP:0   MisRate:0.00%    MPKI:0.00
PC:116c6     Total:11219      MisBP:0   MisRate:0.00%    MPKI:0.00
PC:116c8     Total:11192      MisBP:0   MisRate:0.00%    MPKI:0.00
PC:2f45a     Total:23      MisBP:0   MisRate:0.00%    MPKI:0.00
PC:116d0     Total:11183      MisBP:0   MisRate:0.00%    MPKI:0.00
PC:116d2     Total:11178      MisBP:0   MisRate:0.00%    MPKI:0.00
PC:116d4     Total:11172      MisBP:0   MisRate:0.00%    MPKI:0.00
PC:116da     Total:10710      MisBP:0   MisRate:0.00%    MPKI:0.00
PC:116de     Total:10704      MisBP:0   MisRate:0.00%    MPKI:0.00
PC:116e2     Total:10699      MisBP:0   MisRate:0.00%    MPKI:0.00
PC:116e4     Total:10695      MisBP:0   MisRate:0.00%    MPKI:0.00
PC:116e6     Total:10692      MisBP:0   MisRate:0.00%    MPKI:0.00
PC:15692     Total:155      MisBP:0   MisRate:0.00%    MPKI:0.00
PC:154d2     Total:168      MisBP:0   MisRate:0.00%    MPKI:0.00
PC:151a0     Total:12604977      MisBP:0   MisRate:0.00%    MPKI:0.00
PC:2d452     Total:16      MisBP:0   MisRate:0.00%    MPKI:0.00
PC:11da4     Total:88      MisBP:0   MisRate:0.00%    MPKI:0.00
PC:2d794     Total:1      MisBP:0   MisRate:0.00%    MPKI:0.00
PC:154e2     Total:380      MisBP:0   MisRate:0.00%    MPKI:0.00
PC:114fa     Total:232      MisBP:0   MisRate:0.00%    MPKI:0.00
PC:15688     Total:107      MisBP:0   MisRate:0.00%    MPKI:0.00
PC:1568e     Total:60      MisBP:0   MisRate:0.00%    MPKI:0.00
PC:11d94     Total:89      MisBP:0   MisRate:0.00%    MPKI:0.00
PC:15696     Total:155      MisBP:0   MisRate:0.00%    MPKI:0.00
PC:2cab8     Total:27      MisBP:0   MisRate:0.00%    MPKI:0.00
PC:1158e     Total:17112      MisBP:0   MisRate:0.00%    MPKI:0.00
PC:2cac0     Total:26      MisBP:0   MisRate:0.00%    MPKI:0.00
PC:11596     Total:6080      MisBP:0   MisRate:0.00%    MPKI:0.00
PC:2caca     Total:26      MisBP:0   MisRate:0.00%    MPKI:0.00
PC:115a0     Total:1798      MisBP:0   MisRate:0.00%    MPKI:0.00
PC:2f464     Total:23      MisBP:0   MisRate:0.00%    MPKI:0.00
PC:11d8e     Total:94      MisBP:0   MisRate:0.00%    MPKI:0.00
PC:154c0     Total:168      MisBP:0   MisRate:0.00%    MPKI:0.00
PC:114d8     Total:3016      MisBP:0   MisRate:0.00%    MPKI:0.00
PC:15182     Total:1629833      MisBP:0   MisRate:0.00%    MPKI:0.00
PC:148da     Total:360      MisBP:0   MisRate:0.00%    MPKI:0.00
PC:11d88     Total:95      MisBP:0   MisRate:0.00%    MPKI:0.00
PC:148de     Total:360      MisBP:0   MisRate:0.00%    MPKI:0.00
PC:2ddfa     Total:1      MisBP:0   MisRate:0.00%    MPKI:0.00
PC:114e2     Total:254      MisBP:0   MisRate:0.00%    MPKI:0.00
PC:1518a     Total:1629792      MisBP:0   MisRate:0.00%    MPKI:0.00
PC:115a2     Total:1798      MisBP:0   MisRate:0.00%    MPKI:0.00
PC:154cc     Total:168      MisBP:0   MisRate:0.00%    MPKI:0.00
PC:2d76e     Total:16      MisBP:0   MisRate:0.00%    MPKI:0.00
PC:154bc     Total:179      MisBP:0   MisRate:0.00%    MPKI:0.00
PC:10a06     Total:19      MisBP:0   MisRate:0.00%    MPKI:0.00
PC:30eac     Total:11      MisBP:0   MisRate:0.00%    MPKI:0.00
PC:1518c     Total:1629678      MisBP:0   MisRate:0.00%    MPKI:0.00
PC:148e2     Total:360      MisBP:0   MisRate:0.00%    MPKI:0.00
PC:148e6     Total:360      MisBP:0   MisRate:0.00%    MPKI:0.00
PC:11756     Total:13853      MisBP:0   MisRate:0.00%    MPKI:0.00
PC:2f42c     Total:642      MisBP:0   MisRate:0.00%    MPKI:0.00
PC:11744     Total:8114      MisBP:0   MisRate:0.00%    MPKI:0.00
PC:2f436     Total:642      MisBP:0   MisRate:0.00%    MPKI:0.00
PC:1174e     Total:8108      MisBP:0   MisRate:0.00%    MPKI:0.00
PC:2f43a     Total:642      MisBP:0   MisRate:0.00%    MPKI:0.00
PC:11752     Total:13857      MisBP:0   MisRate:0.00%    MPKI:0.00
PC:2f43c     Total:642      MisBP:0   MisRate:0.00%    MPKI:0.00
PC:11754     Total:13857      MisBP:0   MisRate:0.00%    MPKI:0.00
PC:2f43e     Total:597      MisBP:0   MisRate:0.00%    MPKI:0.00
PC:1173e     Total:8455      MisBP:0   MisRate:0.00%    MPKI:0.00
PC:1175a     Total:13836      MisBP:0   MisRate:0.00%    MPKI:0.00
PC:2f444     Total:520      MisBP:0   MisRate:0.00%    MPKI:0.00
PC:1175c     Total:13834      MisBP:0   MisRate:0.00%    MPKI:0.00
PC:1175e     Total:13833      MisBP:0   MisRate:0.00%    MPKI:0.00
PC:11766     Total:8276      MisBP:0   MisRate:0.00%    MPKI:0.00
PC:2f450     Total:24      MisBP:0   MisRate:0.00%    MPKI:0.00
PC:11768     Total:4154      MisBP:0   MisRate:0.00%    MPKI:0.00
PC:1176e     Total:4154      MisBP:0   MisRate:0.00%    MPKI:0.00
PC:2cadc     Total:26      MisBP:0   MisRate:0.00%    MPKI:0.00
PC:115a6     Total:1798      MisBP:0   MisRate:0.00%    MPKI:0.00
PC:2cad2     Total:26      MisBP:0   MisRate:0.00%    MPKI:0.00
PC:115a8     Total:9676      MisBP:0   MisRate:0.00%    MPKI:0.00
PC:2cad4     Total:26      MisBP:0   MisRate:0.00%    MPKI:0.00
PC:115aa     Total:15112      MisBP:0   MisRate:0.00%    MPKI:0.00
PC:2f470     Total:22      MisBP:0   MisRate:0.00%    MPKI:0.00
PC:2cad8     Total:26      MisBP:0   MisRate:0.00%    MPKI:0.00
PC:115ae     Total:5781      MisBP:0   MisRate:0.00%    MPKI:0.00
PC:115b0     Total:5780      MisBP:0   MisRate:0.00%    MPKI:0.00
PC:1160e     Total:15338      MisBP:0   MisRate:0.00%    MPKI:0.00
PC:115b2     Total:5780      MisBP:0   MisRate:0.00%    MPKI:0.00
PC:2cae4     Total:26      MisBP:0   MisRate:0.00%    MPKI:0.00
PC:115ba     Total:12380      MisBP:0   MisRate:0.00%    MPKI:0.00
PC:115bc     Total:26818      MisBP:0   MisRate:0.00%    MPKI:0.00
PC:2f480     Total:38      MisBP:0   MisRate:0.00%    MPKI:0.00
PC:2cae8     Total:26      MisBP:0   MisRate:0.00%    MPKI:0.00
PC:115be     Total:26808      MisBP:0   MisRate:0.00%    MPKI:0.00
PC:11738     Total:10989      MisBP:0   MisRate:0.00%    MPKI:0.00
PC:2c3da     Total:5      MisBP:0   MisRate:0.00%    MPKI:0.00
PC:2d63c     Total:19      MisBP:0   MisRate:0.00%    MPKI:0.00
PC:2c3d6     Total:5      MisBP:0   MisRate:0.00%    MPKI:0.00
PC:148d4     Total:471      MisBP:0   MisRate:0.00%    MPKI:0.00
PC:2d640     Total:17      MisBP:0   MisRate:0.00%    MPKI:0.00
PC:2c3d8     Total:5      MisBP:0   MisRate:0.00%    MPKI:0.00
PC:30e8e     Total:17      MisBP:0   MisRate:0.00%    MPKI:0.00
PC:109e8     Total:20      MisBP:0   MisRate:0.00%    MPKI:0.00
PC:148d6     Total:469      MisBP:0   MisRate:0.00%    MPKI:0.00
PC:2d642     Total:17      MisBP:0   MisRate:0.00%    MPKI:0.00
PC:148d0     Total:480      MisBP:0   MisRate:0.00%    MPKI:0.00
PC:109ea     Total:20      MisBP:0   MisRate:0.00%    MPKI:0.00
PC:2d644     Total:10      MisBP:0   MisRate:0.00%    MPKI:0.00
PC:2c3e0     Total:5      MisBP:0   MisRate:0.00%    MPKI:0.00
PC:30e96     Total:12      MisBP:0   MisRate:0.00%    MPKI:0.00
PC:109f0     Total:20      MisBP:0   MisRate:0.00%    MPKI:0.00
PC:2c3ee     Total:5      MisBP:0   MisRate:0.00%    MPKI:0.00
PC:30ea4     Total:22      MisBP:0   MisRate:0.00%    MPKI:0.00
PC:35e20     Total:30      MisBP:0   MisRate:0.00%    MPKI:0.00
PC:109fe     Total:20      MisBP:0   MisRate:0.00%    MPKI:0.00
PC:148cc     Total:2475      MisBP:0   MisRate:0.00%    MPKI:0.00
PC:30e7e     Total:18      MisBP:0   MisRate:0.00%    MPKI:0.00
PC:109d8     Total:21      MisBP:0   MisRate:0.00%    MPKI:0.00
PC:2d632     Total:17      MisBP:0   MisRate:0.00%    MPKI:0.00
PC:2c3cc     Total:7      MisBP:0   MisRate:0.00%    MPKI:0.00
PC:30e82     Total:17      MisBP:0   MisRate:0.00%    MPKI:0.00
PC:109dc     Total:21      MisBP:0   MisRate:0.00%    MPKI:0.00
PC:2d636     Total:17      MisBP:0   MisRate:0.00%    MPKI:0.00
PC:2c3ce     Total:7      MisBP:0   MisRate:0.00%    MPKI:0.00
PC:109de     Total:20      MisBP:0   MisRate:0.00%    MPKI:0.00
PC:2c3f8     Total:5      MisBP:0   MisRate:0.00%    MPKI:0.00
PC:2d638     Total:17      MisBP:0   MisRate:0.00%    MPKI:0.00
PC:2c3d0     Total:7      MisBP:0   MisRate:0.00%    MPKI:0.00
PC:30e86     Total:17      MisBP:0   MisRate:0.00%    MPKI:0.00
PC:109e0     Total:20      MisBP:0   MisRate:0.00%    MPKI:0.00
PC:148ce     Total:480      MisBP:0   MisRate:0.00%    MPKI:0.00
PC:2d63a     Total:19      MisBP:0   MisRate:0.00%    MPKI:0.00
PC:2c3d2     Total:7      MisBP:0   MisRate:0.00%    MPKI:0.00
PC:109e2     Total:20      MisBP:0   MisRate:0.00%    MPKI:0.00
PC:2f490     Total:413      MisBP:0   MisRate:0.00%    MPKI:0.00
PC:2c8b0     Total:147      MisBP:0   MisRate:0.00%    MPKI:0.00
PC:2c8b2     Total:147      MisBP:0   MisRate:0.00%    MPKI:0.00
PC:2c8b6     Total:147      MisBP:0   MisRate:0.00%    MPKI:0.00
PC:2c8b8     Total:147      MisBP:0   MisRate:0.00%    MPKI:0.00
PC:2c8bc     Total:14      MisBP:0   MisRate:0.00%    MPKI:0.00
PC:4a9b8     Total:3      MisBP:0   MisRate:0.00%    MPKI:0.00
PC:2f48e     Total:413      MisBP:0   MisRate:0.00%    MPKI:0.00
PC:117a6     Total:5209      MisBP:0   MisRate:0.00%    MPKI:0.00
PC:4a9ba     Total:3      MisBP:0   MisRate:0.00%    MPKI:0.00
PC:2c8ac     Total:147      MisBP:0   MisRate:0.00%    MPKI:0.00
PC:117a8     Total:5209      MisBP:0   MisRate:0.00%    MPKI:0.00
PC:4a9bc     Total:3      MisBP:0   MisRate:0.00%    MPKI:0.00
PC:2f492     Total:413      MisBP:0   MisRate:0.00%    MPKI:0.00
PC:117aa     Total:5209      MisBP:0   MisRate:0.00%    MPKI:0.00
PC:4a9be     Total:2      MisBP:0   MisRate:0.00%    MPKI:0.00
PC:117ac     Total:5209      MisBP:0   MisRate:0.00%    MPKI:0.00
PC:2f496     Total:413      MisBP:0   MisRate:0.00%    MPKI:0.00
PC:117ae     Total:1      MisBP:0   MisRate:0.00%    MPKI:0.00
PC:2c890     Total:164      MisBP:0   MisRate:0.00%    MPKI:0.00
PC:2d662     Total:10      MisBP:0   MisRate:0.00%    MPKI:0.00
PC:2c87c     Total:279      MisBP:0   MisRate:0.00%    MPKI:0.00
PC:2c87e     Total:2093      MisBP:0   MisRate:0.00%    MPKI:0.00
PC:2c882     Total:184      MisBP:0   MisRate:0.00%    MPKI:0.00
PC:2c884     Total:184      MisBP:0   MisRate:0.00%    MPKI:0.00
PC:2c886     Total:184      MisBP:0   MisRate:0.00%    MPKI:0.00
PC:2c888     Total:184      MisBP:0   MisRate:0.00%    MPKI:0.00
PC:2c88c     Total:184      MisBP:0   MisRate:0.00%    MPKI:0.00
PC:2c88e     Total:184      MisBP:0   MisRate:0.00%    MPKI:0.00
PC:2c3c8     Total:7      MisBP:0   MisRate:0.00%    MPKI:0.00
PC:2c894     Total:164      MisBP:0   MisRate:0.00%    MPKI:0.00
PC:2c896     Total:164      MisBP:0   MisRate:0.00%    MPKI:0.00
PC:2c89a     Total:164      MisBP:0   MisRate:0.00%    MPKI:0.00
PC:2c89c     Total:164      MisBP:0   MisRate:0.00%    MPKI:0.00
PC:2c89e     Total:164      MisBP:0   MisRate:0.00%    MPKI:0.00
PC:2c8a2     Total:164      MisBP:0   MisRate:0.00%    MPKI:0.00
PC:2c8a6     Total:164      MisBP:0   MisRate:0.00%    MPKI:0.00
PC:2c8aa     Total:147      MisBP:0   MisRate:0.00%    MPKI:0.00
PC:11652     Total:76      MisBP:0   MisRate:0.00%    MPKI:0.00
PC:11638     Total:19146      MisBP:0   MisRate:0.00%    MPKI:0.00
PC:1163a     Total:19130      MisBP:0   MisRate:0.00%    MPKI:0.00
PC:1163e     Total:18344      MisBP:0   MisRate:0.00%    MPKI:0.00
PC:11642     Total:18339      MisBP:0   MisRate:0.00%    MPKI:0.00
PC:11644     Total:18362      MisBP:0   MisRate:0.00%    MPKI:0.00
PC:11646     Total:18352      MisBP:0   MisRate:0.00%    MPKI:0.00
PC:11648     Total:18350      MisBP:0   MisRate:0.00%    MPKI:0.00
PC:1164c     Total:77      MisBP:0   MisRate:0.00%    MPKI:0.00
PC:1164e     Total:77      MisBP:0   MisRate:0.00%    MPKI:0.00
PC:11636     Total:19204      MisBP:0   MisRate:0.00%    MPKI:0.00
PC:11654     Total:76      MisBP:0   MisRate:0.00%    MPKI:0.00
PC:11656     Total:76      MisBP:0   MisRate:0.00%    MPKI:0.00
PC:11658     Total:76      MisBP:0   MisRate:0.00%    MPKI:0.00
PC:1165c     Total:76      MisBP:0   MisRate:0.00%    MPKI:0.00
PC:1165e     Total:76      MisBP:0   MisRate:0.00%    MPKI:0.00
PC:11660     Total:75      MisBP:0   MisRate:0.00%    MPKI:0.00
PC:11662     Total:75      MisBP:0   MisRate:0.00%    MPKI:0.00
PC:11666     Total:72      MisBP:0   MisRate:0.00%    MPKI:0.00
PC:1161e     Total:693      MisBP:0   MisRate:0.00%    MPKI:0.00
PC:2cb3a     Total:12      MisBP:0   MisRate:0.00%    MPKI:0.00
PC:11610     Total:15337      MisBP:0   MisRate:0.00%    MPKI:0.00
PC:11612     Total:15329      MisBP:0   MisRate:0.00%    MPKI:0.00
PC:2cb3e     Total:2      MisBP:0   MisRate:0.00%    MPKI:0.00
PC:11614     Total:15244      MisBP:0   MisRate:0.00%    MPKI:0.00
PC:11616     Total:15244      MisBP:0   MisRate:0.00%    MPKI:0.00
PC:2cb42     Total:2      MisBP:0   MisRate:0.00%    MPKI:0.00
PC:2cb46     Total:2      MisBP:0   MisRate:0.00%    MPKI:0.00
PC:1161c     Total:693      MisBP:0   MisRate:0.00%    MPKI:0.00
PC:11668     Total:72      MisBP:0   MisRate:0.00%    MPKI:0.00
PC:2cb4e     Total:2      MisBP:0   MisRate:0.00%    MPKI:0.00
PC:11624     Total:67      MisBP:0   MisRate:0.00%    MPKI:0.00
PC:11626     Total:468      MisBP:0   MisRate:0.00%    MPKI:0.00
PC:1167c     Total:13831      MisBP:0   MisRate:0.00%    MPKI:0.00
PC:11680     Total:13414      MisBP:0   MisRate:0.00%    MPKI:0.00
PC:11682     Total:13414      MisBP:0   MisRate:0.00%    MPKI:0.00
PC:11686     Total:6098      MisBP:0   MisRate:0.00%    MPKI:0.00
PC:11634     Total:19302      MisBP:0   MisRate:0.00%    MPKI:0.00
PC:2c3be     Total:12      MisBP:0   MisRate:0.00%    MPKI:0.00
PC:2f49a     Total:824      MisBP:0   MisRate:0.00%    MPKI:0.00
PC:4a9ca     Total:2      MisBP:0   MisRate:0.00%    MPKI:0.00
PC:2f4a0     Total:375      MisBP:0   MisRate:0.00%    MPKI:0.00
PC:2f4a8     Total:4      MisBP:0   MisRate:0.00%    MPKI:0.00
PC:2c3b8     Total:14      MisBP:0   MisRate:0.00%    MPKI:0.00
PC:2d622     Total:288      MisBP:0   MisRate:0.00%    MPKI:0.00
PC:2c3ba     Total:13      MisBP:0   MisRate:0.00%    MPKI:0.00
PC:30e70     Total:22      MisBP:0   MisRate:0.00%    MPKI:0.00
PC:109ca     Total:86      MisBP:0   MisRate:0.00%    MPKI:0.00
PC:4a9c4     Total:2      MisBP:0   MisRate:0.00%    MPKI:0.00
PC:2c3c0     Total:7      MisBP:0   MisRate:0.00%    MPKI:0.00
PC:30e76     Total:22      MisBP:0   MisRate:0.00%    MPKI:0.00
PC:109d0     Total:86      MisBP:0   MisRate:0.00%    MPKI:0.00
PC:2d62a     Total:17      MisBP:0   MisRate:0.00%    MPKI:0.00
PC:2c3c2     Total:7      MisBP:0   MisRate:0.00%    MPKI:0.00
PC:2d62c     Total:17      MisBP:0   MisRate:0.00%    MPKI:0.00
PC:2c3c6     Total:7      MisBP:0   MisRate:0.00%    MPKI:0.00
PC:2d630     Total:17      MisBP:0   MisRate:0.00%    MPKI:0.00
PC:1162a     Total:19595      MisBP:0   MisRate:0.00%    MPKI:0.00
PC:1166a     Total:72      MisBP:0   MisRate:0.00%    MPKI:0.00
PC:1166c     Total:72      MisBP:0   MisRate:0.00%    MPKI:0.00
PC:1166e     Total:72      MisBP:0   MisRate:0.00%    MPKI:0.00
PC:11670     Total:72      MisBP:0   MisRate:0.00%    MPKI:0.00
PC:11672     Total:70      MisBP:0   MisRate:0.00%    MPKI:0.00
PC:11674     Total:70      MisBP:0   MisRate:0.00%    MPKI:0.00
PC:11676     Total:68      MisBP:0   MisRate:0.00%    MPKI:0.00
PC:11678     Total:68      MisBP:0   MisRate:0.00%    MPKI:0.00
PC:1167a     Total:68      MisBP:0   MisRate:0.00%    MPKI:0.00
PC:11d82     Total:404      MisBP:0   MisRate:0.00%    MPKI:0.00
PC:1162e     Total:19541      MisBP:0   MisRate:0.00%    MPKI:0.00
PC:11630     Total:19537      MisBP:0   MisRate:0.00%    MPKI:0.00
PC:1176c     Total:4154      MisBP:0   MisRate:0.00%    MPKI:0.00
PC:2f454     Total:24      MisBP:0   MisRate:0.00%    MPKI:0.00
PC:11770     Total:6592      MisBP:0   MisRate:0.00%    MPKI:0.00
PC:2f458     Total:24      MisBP:0   MisRate:0.00%    MPKI:0.00
PC:11776     Total:6586      MisBP:0   MisRate:0.00%    MPKI:0.00
PC:2f45e     Total:23      MisBP:0   MisRate:0.00%    MPKI:0.00
PC:2ef90     Total:70      MisBP:0   MisRate:0.00%    MPKI:0.00
PC:2d46c     Total:16      MisBP:0   MisRate:0.00%    MPKI:0.00
PC:11dbe     Total:88      MisBP:0   MisRate:0.00%    MPKI:0.00
PC:151be     Total:729585      MisBP:0   MisRate:0.00%    MPKI:0.00
PC:2d470     Total:16      MisBP:0   MisRate:0.00%    MPKI:0.00
PC:11dc2     Total:87      MisBP:0   MisRate:0.00%    MPKI:0.00
PC:2d7b2     Total:1      MisBP:0   MisRate:0.00%    MPKI:0.00
PC:15500     Total:47      MisBP:0   MisRate:0.00%    MPKI:0.00
PC:2d576     Total:159      MisBP:0   MisRate:0.00%    MPKI:0.00
PC:1480a     Total:382      MisBP:0   MisRate:0.00%    MPKI:0.00
PC:151ba     Total:756135      MisBP:0   MisRate:0.00%    MPKI:0.00
PC:151c2     Total:729047      MisBP:0   MisRate:0.00%    MPKI:0.00
PC:11dc6     Total:87      MisBP:0   MisRate:0.00%    MPKI:0.00
PC:2d7b6     Total:1      MisBP:0   MisRate:0.00%    MPKI:0.00
PC:15504     Total:47      MisBP:0   MisRate:0.00%    MPKI:0.00
PC:2d57a     Total:156      MisBP:0   MisRate:0.00%    MPKI:0.00
PC:1480e     Total:382      MisBP:0   MisRate:0.00%    MPKI:0.00
PC:2ef94     Total:69      MisBP:0   MisRate:0.00%    MPKI:0.00
PC:11dca     Total:87      MisBP:0   MisRate:0.00%    MPKI:0.00
PC:2d7ba     Total:1      MisBP:0   MisRate:0.00%    MPKI:0.00
PC:2d7a4     Total:1      MisBP:0   MisRate:0.00%    MPKI:0.00
PC:11dae     Total:88      MisBP:0   MisRate:0.00%    MPKI:0.00
PC:2d79e     Total:1      MisBP:0   MisRate:0.00%    MPKI:0.00
PC:154ec     Total:59      MisBP:0   MisRate:0.00%    MPKI:0.00
PC:11db2     Total:88      MisBP:0   MisRate:0.00%    MPKI:0.00
PC:2d7a2     Total:1      MisBP:0   MisRate:0.00%    MPKI:0.00
PC:154f0     Total:59      MisBP:0   MisRate:0.00%    MPKI:0.00
PC:151b0     Total:756803      MisBP:0   MisRate:0.00%    MPKI:0.00
PC:2d462     Total:16      MisBP:0   MisRate:0.00%    MPKI:0.00
PC:11db4     Total:88      MisBP:0   MisRate:0.00%    MPKI:0.00
PC:15508     Total:373      MisBP:0   MisRate:0.00%    MPKI:0.00
PC:151b4     Total:756428      MisBP:0   MisRate:0.00%    MPKI:0.00
PC:11db8     Total:88      MisBP:0   MisRate:0.00%    MPKI:0.00
PC:2d7a8     Total:1      MisBP:0   MisRate:0.00%    MPKI:0.00
PC:154f6     Total:49      MisBP:0   MisRate:0.00%    MPKI:0.00
PC:151b6     Total:756146      MisBP:0   MisRate:0.00%    MPKI:0.00
PC:2d468     Total:16      MisBP:0   MisRate:0.00%    MPKI:0.00
PC:11dba     Total:88      MisBP:0   MisRate:0.00%    MPKI:0.00
PC:2d7aa     Total:1      MisBP:0   MisRate:0.00%    MPKI:0.00
PC:15646     Total:108      MisBP:0   MisRate:0.00%    MPKI:0.00
PC:1561c     Total:232      MisBP:0   MisRate:0.00%    MPKI:0.00
PC:2d8ce     Total:13      MisBP:0   MisRate:0.00%    MPKI:0.00
PC:15628     Total:228      MisBP:0   MisRate:0.00%    MPKI:0.00
PC:2d8da     Total:13      MisBP:0   MisRate:0.00%    MPKI:0.00
PC:1562c     Total:228      MisBP:0   MisRate:0.00%    MPKI:0.00
PC:2d8de     Total:13      MisBP:0   MisRate:0.00%    MPKI:0.00
PC:15630     Total:228      MisBP:0   MisRate:0.00%    MPKI:0.00
PC:15636     Total:225      MisBP:0   MisRate:0.00%    MPKI:0.00
PC:2d8f4     Total:20      MisBP:0   MisRate:0.00%    MPKI:0.00
PC:2d8c4     Total:13      MisBP:0   MisRate:0.00%    MPKI:0.00
PC:15654     Total:108      MisBP:0   MisRate:0.00%    MPKI:0.00
PC:2d906     Total:46      MisBP:0   MisRate:0.00%    MPKI:0.00
PC:1565a     Total:108      MisBP:0   MisRate:0.00%    MPKI:0.00
PC:2d3a6     Total:28      MisBP:0   MisRate:0.00%    MPKI:0.00
PC:15674     Total:108      MisBP:0   MisRate:0.00%    MPKI:0.00
PC:15678     Total:108      MisBP:0   MisRate:0.00%    MPKI:0.00
PC:156ca     Total:182      MisBP:0   MisRate:0.00%    MPKI:0.00
PC:156d0     Total:182      MisBP:0   MisRate:0.00%    MPKI:0.00
PC:14852     Total:362      MisBP:0   MisRate:0.00%    MPKI:0.00
PC:2d590     Total:63      MisBP:0   MisRate:0.00%    MPKI:0.00
PC:14824     Total:379      MisBP:0   MisRate:0.00%    MPKI:0.00
PC:2efaa     Total:67      MisBP:0   MisRate:0.00%    MPKI:0.00
PC:10a04     Total:19      MisBP:0   MisRate:0.00%    MPKI:0.00
PC:35e26     Total:30      MisBP:0   MisRate:0.00%    MPKI:0.00
PC:150e8     Total:13957333      MisBP:0   MisRate:0.00%    MPKI:0.00
PC:2caf0     Total:26      MisBP:0   MisRate:0.00%    MPKI:0.00
PC:150ee     Total:13952104      MisBP:0   MisRate:0.00%    MPKI:0.00
PC:14846     Total:362      MisBP:0   MisRate:0.00%    MPKI:0.00
PC:2d45c     Total:16      MisBP:0   MisRate:0.00%    MPKI:0.00
PC:15142     Total:323601      MisBP:0   MisRate:0.00%    MPKI:0.00
PC:14898     Total:360      MisBP:0   MisRate:0.00%    MPKI:0.00
PC:2cb4a     Total:2      MisBP:0   MisRate:0.00%    MPKI:0.00
PC:152da     Total:85      MisBP:0   MisRate:0.00%    MPKI:0.00
PC:10938     Total:121      MisBP:0   MisRate:0.00%    MPKI:0.00
PC:152e0     Total:85      MisBP:0   MisRate:0.00%    MPKI:0.00
PC:1560e     Total:206      MisBP:0   MisRate:0.00%    MPKI:0.00
PC:15612     Total:1846      MisBP:0   MisRate:0.00%    MPKI:0.00
PC:1511c     Total:310348      MisBP:0   MisRate:0.00%    MPKI:0.00
PC:2d5c0     Total:27      MisBP:0   MisRate:0.00%    MPKI:0.00
PC:14854     Total:359      MisBP:0   MisRate:0.00%    MPKI:0.00
PC:150fe     Total:5027736      MisBP:0   MisRate:0.00%    MPKI:0.00
PC:14860     Total:348      MisBP:0   MisRate:0.00%    MPKI:0.00
PC:2cb12     Total:22      MisBP:0   MisRate:0.00%    MPKI:0.00
PC:2d5d0     Total:27      MisBP:0   MisRate:0.00%    MPKI:0.00
PC:14864     Total:348      MisBP:0   MisRate:0.00%    MPKI:0.00
PC:1510e     Total:316827      MisBP:0   MisRate:0.00%    MPKI:0.00
PC:2d3c0     Total:28      MisBP:0   MisRate:0.00%    MPKI:0.00
PC:15698     Total:155      MisBP:0   MisRate:0.00%    MPKI:0.00
PC:10942     Total:117      MisBP:0   MisRate:0.00%    MPKI:0.00
PC:152ea     Total:77      MisBP:0   MisRate:0.00%    MPKI:0.00
PC:2d59c     Total:46      MisBP:0   MisRate:0.00%    MPKI:0.00
PC:2d5e4     Total:1      MisBP:0   MisRate:0.00%    MPKI:0.00
PC:14878     Total:338      MisBP:0   MisRate:0.00%    MPKI:0.00
PC:2ce7e     Total:1      MisBP:0   MisRate:0.00%    MPKI:0.00
PC:15460     Total:80      MisBP:0   MisRate:0.00%    MPKI:0.00
PC:2d5f2     Total:20      MisBP:0   MisRate:0.00%    MPKI:0.00
PC:1524c     Total:635509      MisBP:0   MisRate:0.00%    MPKI:0.00
PC:15366     Total:31895      MisBP:0   MisRate:0.00%    MPKI:0.00
PC:2e0d2     Total:1      MisBP:0   MisRate:0.00%    MPKI:0.00
PC:2d3b8     Total:28      MisBP:0   MisRate:0.00%    MPKI:0.00
PC:15680     Total:107      MisBP:0   MisRate:0.00%    MPKI:0.00
PC:2d3bc     Total:28      MisBP:0   MisRate:0.00%    MPKI:0.00
PC:1510a     Total:316854      MisBP:0   MisRate:0.00%    MPKI:0.00
PC:15684     Total:107      MisBP:0   MisRate:0.00%    MPKI:0.00
PC:1536c     Total:1035      MisBP:0   MisRate:0.00%    MPKI:0.00
PC:2e0d8     Total:1      MisBP:0   MisRate:0.00%    MPKI:0.00
PC:14886     Total:318      MisBP:0   MisRate:0.00%    MPKI:0.00
PC:15428     Total:140      MisBP:0   MisRate:0.00%    MPKI:0.00
PC:33110     Total:96      MisBP:0   MisRate:0.00%    MPKI:0.00
PC:2e0dc     Total:1      MisBP:0   MisRate:0.00%    MPKI:0.00
PC:2e0de     Total:1      MisBP:0   MisRate:0.00%    MPKI:0.00
PC:1568c     Total:107      MisBP:0   MisRate:0.00%    MPKI:0.00
PC:2e0e2     Total:1      MisBP:0   MisRate:0.00%    MPKI:0.00
PC:2d3c8     Total:2      MisBP:0   MisRate:0.00%    MPKI:0.00
PC:15690     Total:155      MisBP:0   MisRate:0.00%    MPKI:0.00
PC:154e8     Total:59      MisBP:0   MisRate:0.00%    MPKI:0.00
PC:11d80     Total:406      MisBP:0   MisRate:0.00%    MPKI:0.00
PC:2d770     Total:16      MisBP:0   MisRate:0.00%    MPKI:0.00
PC:2ddee     Total:11      MisBP:0   MisRate:0.00%    MPKI:0.00
PC:2d774     Total:16      MisBP:0   MisRate:0.00%    MPKI:0.00
PC:2ddf2     Total:11      MisBP:0   MisRate:0.00%    MPKI:0.00
PC:2d4ba     Total:21      MisBP:0   MisRate:0.00%    MPKI:0.00
PC:2d458     Total:16      MisBP:0   MisRate:0.00%    MPKI:0.00
PC:11daa     Total:88      MisBP:0   MisRate:0.00%    MPKI:0.00
PC:2d79a     Total:1      MisBP:0   MisRate:0.00%    MPKI:0.00
PC:1517c     Total:1818028      MisBP:0   MisRate:0.00%    MPKI:0.00
PC:2d55c     Total:181      MisBP:0   MisRate:0.00%    MPKI:0.00
PC:147f0     Total:427      MisBP:0   MisRate:0.00%    MPKI:0.00
PC:11578     Total:56      MisBP:0   MisRate:0.00%    MPKI:0.00
PC:151a8     Total:5362730      MisBP:0   MisRate:0.00%    MPKI:0.00
PC:2d45a     Total:16      MisBP:0   MisRate:0.00%    MPKI:0.00
PC:11dac     Total:88      MisBP:0   MisRate:0.00%    MPKI:0.00
PC:2d79c     Total:1      MisBP:0   MisRate:0.00%    MPKI:0.00
PC:151aa     Total:5361432      MisBP:0   MisRate:0.00%    MPKI:0.00
PC:2d494     Total:5      MisBP:0   MisRate:0.00%    MPKI:0.00
PC:2d426     Total:76      MisBP:0   MisRate:0.00%    MPKI:0.00
PC:156ee     Total:122      MisBP:0   MisRate:0.00%    MPKI:0.00
PC:2d9a0     Total:13      MisBP:0   MisRate:0.00%    MPKI:0.00
PC:108f4     Total:155      MisBP:0   MisRate:0.00%    MPKI:0.00
PC:2d920     Total:1      MisBP:0   MisRate:0.00%    MPKI:0.00
PC:1566e     Total:108      MisBP:0   MisRate:0.00%    MPKI:0.00
PC:1546c     Total:352      MisBP:0   MisRate:0.00%    MPKI:0.00
PC:109b6     Total:152      MisBP:0   MisRate:0.00%    MPKI:0.00
PC:30e5c     Total:22      MisBP:0   MisRate:0.00%    MPKI:0.00
PC:10946     Total:116      MisBP:0   MisRate:0.00%    MPKI:0.00
PC:11d68     Total:109      MisBP:0   MisRate:0.00%    MPKI:0.00
PC:154a6     Total:339      MisBP:0   MisRate:0.00%    MPKI:0.00
PC:11d7a     Total:450      MisBP:0   MisRate:0.00%    MPKI:0.00
PC:2d76a     Total:90      MisBP:0   MisRate:0.00%    MPKI:0.00
PC:154b8     Total:179      MisBP:0   MisRate:0.00%    MPKI:0.00
PC:2dde8     Total:11      MisBP:0   MisRate:0.00%    MPKI:0.00
PC:2d75e     Total:19      MisBP:0   MisRate:0.00%    MPKI:0.00
PC:30e9c     Total:11      MisBP:0   MisRate:0.00%    MPKI:0.00
PC:2efa4     Total:69      MisBP:0   MisRate:0.00%    MPKI:0.00
PC:2ef9a     Total:69      MisBP:0   MisRate:0.00%    MPKI:0.00
PC:14fba     Total:203      MisBP:0   MisRate:0.00%    MPKI:0.00
PC:14832     Total:370      MisBP:0   MisRate:0.00%    MPKI:0.00
PC:2d59e     Total:46      MisBP:0   MisRate:0.00%    MPKI:0.00
PC:14fbc     Total:203      MisBP:0   MisRate:0.00%    MPKI:0.00
PC:2ef9e     Total:69      MisBP:0   MisRate:0.00%    MPKI:0.00
PC:14fbe     Total:392      MisBP:0   MisRate:0.00%    MPKI:0.00
PC:14fc0     Total:186      MisBP:0   MisRate:0.00%    MPKI:0.00
PC:14fc2     Total:186      MisBP:0   MisRate:0.00%    MPKI:0.00
PC:14fb8     Total:203      MisBP:0   MisRate:0.00%    MPKI:0.00
PC:14fc4     Total:186      MisBP:0   MisRate:0.00%    MPKI:0.00
PC:14fc6     Total:186      MisBP:0   MisRate:0.00%    MPKI:0.00
PC:1483e     Total:362      MisBP:0   MisRate:0.00%    MPKI:0.00
PC:2d5aa     Total:53      MisBP:0   MisRate:0.00%    MPKI:0.00
PC:152f8     Total:77      MisBP:0   MisRate:0.00%    MPKI:0.00
PC:2efa8     Total:68      MisBP:0   MisRate:0.00%    MPKI:0.00
PC:30ea8     Total:11      MisBP:0   MisRate:0.00%    MPKI:0.00
PC:35e24     Total:30      MisBP:0   MisRate:0.00%    MPKI:0.00
PC:14fc8     Total:186      MisBP:0   MisRate:0.00%    MPKI:0.00
PC:2d764     Total:71      MisBP:0   MisRate:0.00%    MPKI:0.00
PC:1549c     Total:46      MisBP:0   MisRate:0.00%    MPKI:0.00
PC:1516c     Total:6306872      MisBP:0   MisRate:0.00%    MPKI:0.00
PC:11d70     Total:114      MisBP:0   MisRate:0.00%    MPKI:0.00
PC:2d760     Total:143      MisBP:0   MisRate:0.00%    MPKI:0.00
PC:154ae     Total:339      MisBP:0   MisRate:0.00%    MPKI:0.00
PC:109f8     Total:20      MisBP:0   MisRate:0.00%    MPKI:0.00
PC:30e9e     Total:11      MisBP:0   MisRate:0.00%    MPKI:0.00
PC:11da6     Total:88      MisBP:0   MisRate:0.00%    MPKI:0.00
PC:2d796     Total:1      MisBP:0   MisRate:0.00%    MPKI:0.00
PC:14fca     Total:186      MisBP:0   MisRate:0.00%    MPKI:0.00
PC:154b2     Total:339      MisBP:0   MisRate:0.00%    MPKI:0.00
PC:14fb0     Total:203      MisBP:0   MisRate:0.00%    MPKI:0.00
PC:14fb2     Total:203      MisBP:0   MisRate:0.00%    MPKI:0.00
PC:14fb4     Total:203      MisBP:0   MisRate:0.00%    MPKI:0.00
PC:14fb6     Total:203      MisBP:0   MisRate:0.00%    MPKI:0.00
PC:1482e     Total:370      MisBP:0   MisRate:0.00%    MPKI:0.00
PC:2d59a     Total:46      MisBP:0   MisRate:0.00%    MPKI:0.00
PC:152e8     Total:77      MisBP:0   MisRate:0.00%    MPKI:0.00
PC:151c4     Total:728801      MisBP:0   MisRate:0.00%    MPKI:0.00
PC:2d7ac     Total:1      MisBP:0   MisRate:0.00%    MPKI:0.00
PC:154fa     Total:49      MisBP:0   MisRate:0.00%    MPKI:0.00
PC:11dc0     Total:87      MisBP:0   MisRate:0.00%    MPKI:0.00
PC:2d7b0     Total:1      MisBP:0   MisRate:0.00%    MPKI:0.00
PC:154fe     Total:49      MisBP:0   MisRate:0.00%    MPKI:0.00
PC:11dc4     Total:87      MisBP:0   MisRate:0.00%    MPKI:0.00
PC:2d7b4     Total:1      MisBP:0   MisRate:0.00%    MPKI:0.00
PC:2ca48     Total:17      MisBP:0   MisRate:0.00%    MPKI:0.00
PC:1151e     Total:118      MisBP:0   MisRate:0.00%    MPKI:0.00
PC:11dbc     Total:88      MisBP:0   MisRate:0.00%    MPKI:0.00
PC:2d476     Total:16      MisBP:0   MisRate:0.00%    MPKI:0.00
PC:11dc8     Total:87      MisBP:0   MisRate:0.00%    MPKI:0.00
PC:2d7b8     Total:1      MisBP:0   MisRate:0.00%    MPKI:0.00
PC:152d6     Total:85      MisBP:0   MisRate:0.00%    MPKI:0.00
PC:152f0     Total:77      MisBP:0   MisRate:0.00%    MPKI:0.00
PC:15304     Total:74      MisBP:0   MisRate:0.00%    MPKI:0.00
PC:1517e     Total:1630208      MisBP:0   MisRate:0.00%    MPKI:0.00
PC:2ddf0     Total:11      MisBP:0   MisRate:0.00%    MPKI:0.00
PC:2d782     Total:11      MisBP:0   MisRate:0.00%    MPKI:0.00
PC:14fcc     Total:186      MisBP:0   MisRate:0.00%    MPKI:0.00
PC:14844     Total:362      MisBP:0   MisRate:0.00%    MPKI:0.00
PC:2d5b0     Total:53      MisBP:0   MisRate:0.00%    MPKI:0.00
PC:14fce     Total:186      MisBP:0   MisRate:0.00%    MPKI:0.00
PC:14fd0     Total:185      MisBP:0   MisRate:0.00%    MPKI:0.00
PC:14fd2     Total:370      MisBP:0   MisRate:0.00%    MPKI:0.00
PC:14fd6     Total:185      MisBP:0   MisRate:0.00%    MPKI:0.00
PC:15186     Total:1629813      MisBP:0   MisRate:0.00%    MPKI:0.00
PC:11d92     Total:89      MisBP:0   MisRate:0.00%    MPKI:0.00
PC:2d74e     Total:44      MisBP:0   MisRate:0.00%    MPKI:0.00
PC:154d0     Total:168      MisBP:0   MisRate:0.00%    MPKI:0.00
PC:11d96     Total:88      MisBP:0   MisRate:0.00%    MPKI:0.00
PC:114f0     Total:235      MisBP:0   MisRate:0.00%    MPKI:0.00
PC:11d9a     Total:88      MisBP:0   MisRate:0.00%    MPKI:0.00
PC:2d78a     Total:11      MisBP:0   MisRate:0.00%    MPKI:0.00
PC:11db0     Total:88      MisBP:0   MisRate:0.00%    MPKI:0.00
PC:2d7a0     Total:1      MisBP:0   MisRate:0.00%    MPKI:0.00
PC:11db6     Total:88      MisBP:0   MisRate:0.00%    MPKI:0.00
PC:2c93e     Total:2      MisBP:0   MisRate:0.00%    MPKI:0.00
PC:2da78     Total:1      MisBP:0   MisRate:0.00%    MPKI:0.00
PC:10f46     Total:115      MisBP:0   MisRate:0.00%    MPKI:0.00
PC:2c936     Total:2      MisBP:0   MisRate:0.00%    MPKI:0.00
PC:2da7c     Total:1      MisBP:0   MisRate:0.00%    MPKI:0.00
PC:2c474     Total:7      MisBP:0   MisRate:0.00%    MPKI:0.00
PC:10f4a     Total:229      MisBP:0   MisRate:0.00%    MPKI:0.00
PC:2c93a     Total:2      MisBP:0   MisRate:0.00%    MPKI:0.00
PC:2c478     Total:67      MisBP:0   MisRate:0.00%    MPKI:0.00
PC:10f4e     Total:114      MisBP:0   MisRate:0.00%    MPKI:0.00
PC:1482a     Total:375      MisBP:0   MisRate:0.00%    MPKI:0.00
PC:2c47c     Total:6      MisBP:0   MisRate:0.00%    MPKI:0.00
PC:10f52     Total:114      MisBP:0   MisRate:0.00%    MPKI:0.00
PC:10f54     Total:124      MisBP:0   MisRate:0.00%    MPKI:0.00
PC:152f4     Total:77      MisBP:0   MisRate:0.00%    MPKI:0.00
PC:1483a     Total:370      MisBP:0   MisRate:0.00%    MPKI:0.00
PC:2d5a6     Total:46      MisBP:0   MisRate:0.00%    MPKI:0.00
PC:2c480     Total:4      MisBP:0   MisRate:0.00%    MPKI:0.00
PC:10f56     Total:123      MisBP:0   MisRate:0.00%    MPKI:0.00
PC:2da6e     Total:1      MisBP:0   MisRate:0.00%    MPKI:0.00
PC:152ee     Total:77      MisBP:0   MisRate:0.00%    MPKI:0.00
PC:2d5a0     Total:46      MisBP:0   MisRate:0.00%    MPKI:0.00
PC:1094a     Total:116      MisBP:0   MisRate:0.00%    MPKI:0.00
PC:2d5a4     Total:46      MisBP:0   MisRate:0.00%    MPKI:0.00
PC:1094e     Total:116      MisBP:0   MisRate:0.00%    MPKI:0.00
PC:2d5a8     Total:45      MisBP:0   MisRate:0.00%    MPKI:0.00
PC:10952     Total:116      MisBP:0   MisRate:0.00%    MPKI:0.00
PC:2d5ac     Total:53      MisBP:0   MisRate:0.00%    MPKI:0.00
PC:10f3a     Total:118      MisBP:0   MisRate:0.00%    MPKI:0.00
PC:2d73a     Total:28      MisBP:0   MisRate:0.00%    MPKI:0.00
PC:10f3c     Total:118      MisBP:0   MisRate:0.00%    MPKI:0.00
PC:2c92c     Total:2      MisBP:0   MisRate:0.00%    MPKI:0.00
PC:2da72     Total:1      MisBP:0   MisRate:0.00%    MPKI:0.00
PC:10f40     Total:115      MisBP:0   MisRate:0.00%    MPKI:0.00
PC:2c930     Total:2      MisBP:0   MisRate:0.00%    MPKI:0.00
PC:10f44     Total:115      MisBP:0   MisRate:0.00%    MPKI:0.00
PC:2c934     Total:2      MisBP:0   MisRate:0.00%    MPKI:0.00
PC:152e4     Total:85      MisBP:0   MisRate:0.00%    MPKI:0.00
PC:11da0     Total:88      MisBP:0   MisRate:0.00%    MPKI:0.00
PC:148ee     Total:360      MisBP:0   MisRate:0.00%    MPKI:0.00
PC:11d9c     Total:88      MisBP:0   MisRate:0.00%    MPKI:0.00
PC:154da     Total:386      MisBP:0   MisRate:0.00%    MPKI:0.00
PC:2d746     Total:44      MisBP:0   MisRate:0.00%    MPKI:0.00
PC:15164     Total:12551625      MisBP:0   MisRate:0.00%    MPKI:0.00
PC:11d8c     Total:94      MisBP:0   MisRate:0.00%    MPKI:0.00
PC:2d748     Total:44      MisBP:0   MisRate:0.00%    MPKI:0.00
PC:15496     Total:46      MisBP:0   MisRate:0.00%    MPKI:0.00
PC:1519c     Total:12610422      MisBP:0   MisRate:0.00%    MPKI:0.00
PC:2d65a     Total:10      MisBP:0   MisRate:0.00%    MPKI:0.00
PC:154de     Total:380      MisBP:0   MisRate:0.00%    MPKI:0.00
PC:2d74a     Total:44      MisBP:0   MisRate:0.00%    MPKI:0.00
PC:15498     Total:46      MisBP:0   MisRate:0.00%    MPKI:0.00
PC:15168     Total:12550835      MisBP:0   MisRate:0.00%    MPKI:0.00
PC:11d6c     Total:116      MisBP:0   MisRate:0.00%    MPKI:0.00
PC:154aa     Total:339      MisBP:0   MisRate:0.00%    MPKI:0.00
PC:109f4     Total:20      MisBP:0   MisRate:0.00%    MPKI:0.00
PC:30e9a     Total:11      MisBP:0   MisRate:0.00%    MPKI:0.00
PC:154a2     Total:340      MisBP:0   MisRate:0.00%    MPKI:0.00
PC:2d73e     Total:28      MisBP:0   MisRate:0.00%    MPKI:0.00
PC:2d740     Total:30      MisBP:0   MisRate:0.00%    MPKI:0.00
PC:1548e     Total:46      MisBP:0   MisRate:0.00%    MPKI:0.00
PC:1515e     Total:12554345      MisBP:0   MisRate:0.00%    MPKI:0.00
PC:11d62     Total:111      MisBP:0   MisRate:0.00%    MPKI:0.00
PC:2d752     Total:44      MisBP:0   MisRate:0.00%    MPKI:0.00
PC:154a0     Total:340      MisBP:0   MisRate:0.00%    MPKI:0.00
PC:15160     Total:12554238      MisBP:0   MisRate:0.00%    MPKI:0.00
PC:11d64     Total:109      MisBP:0   MisRate:0.00%    MPKI:0.00
PC:4a9c2     Total:2      MisBP:0   MisRate:0.00%    MPKI:0.00
PC:30e92     Total:17      MisBP:0   MisRate:0.00%    MPKI:0.00
PC:2d744     Total:30      MisBP:0   MisRate:0.00%    MPKI:0.00
PC:15492     Total:46      MisBP:0   MisRate:0.00%    MPKI:0.00
PC:2d77a     Total:15      MisBP:0   MisRate:0.00%    MPKI:0.00
PC:11d8a     Total:94      MisBP:0   MisRate:0.00%    MPKI:0.00
PC:154c8     Total:168      MisBP:0   MisRate:0.00%    MPKI:0.00
PC:15198     Total:12694410      MisBP:0   MisRate:0.00%    MPKI:0.00
PC:2d44a     Total:20      MisBP:0   MisRate:0.00%    MPKI:0.00
PC:2bb74     Total:11      MisBP:0   MisRate:0.00%    MPKI:0.00
PC:2cdce     Total:6      MisBP:0   MisRate:0.00%    MPKI:0.00
PC:2bb64     Total:11      MisBP:0   MisRate:0.00%    MPKI:0.00
PC:2cdd2     Total:6      MisBP:0   MisRate:0.00%    MPKI:0.00
PC:2bb68     Total:11      MisBP:0   MisRate:0.00%    MPKI:0.00
PC:2bb6a     Total:11      MisBP:0   MisRate:0.00%    MPKI:0.00
PC:2cdd8     Total:4      MisBP:0   MisRate:0.00%    MPKI:0.00
PC:2cddc     Total:4      MisBP:0   MisRate:0.00%    MPKI:0.00
PC:2bb72     Total:11      MisBP:0   MisRate:0.00%    MPKI:0.00
PC:2cdde     Total:4      MisBP:0   MisRate:0.00%    MPKI:0.00
PC:15512     Total:382      MisBP:0   MisRate:0.00%    MPKI:0.00
PC:2cde2     Total:4      MisBP:0   MisRate:0.00%    MPKI:0.00
PC:155ca     Total:9      MisBP:0   MisRate:0.00%    MPKI:0.00
PC:2bb78     Total:11      MisBP:0   MisRate:0.00%    MPKI:0.00
PC:2cde6     Total:4      MisBP:0   MisRate:0.00%    MPKI:0.00
PC:2cde8     Total:4      MisBP:0   MisRate:0.00%    MPKI:0.00
PC:2bb7e     Total:11      MisBP:0   MisRate:0.00%    MPKI:0.00
PC:2cdea     Total:4      MisBP:0   MisRate:0.00%    MPKI:0.00
PC:155d2     Total:9      MisBP:0   MisRate:0.00%    MPKI:0.00
PC:2bb80     Total:10      MisBP:0   MisRate:0.00%    MPKI:0.00
PC:22e50     Total:33      MisBP:0   MisRate:0.00%    MPKI:0.00
PC:2cb1c     Total:20      MisBP:0   MisRate:0.00%    MPKI:0.00
PC:2cb24     Total:20      MisBP:0   MisRate:0.00%    MPKI:0.00
PC:11604     Total:17811      MisBP:0   MisRate:0.00%    MPKI:0.00
PC:2cb2e     Total:12      MisBP:0   MisRate:0.00%    MPKI:0.00
PC:11608     Total:17796      MisBP:0   MisRate:0.00%    MPKI:0.00
PC:2cb32     Total:12      MisBP:0   MisRate:0.00%    MPKI:0.00
PC:1160c     Total:15316      MisBP:0   MisRate:0.00%    MPKI:0.00
PC:2cb36     Total:12      MisBP:0   MisRate:0.00%    MPKI:0.00
PC:31cc4     Total:2      MisBP:0   MisRate:0.00%    MPKI:0.00
PC:2cdee     Total:4      MisBP:0   MisRate:0.00%    MPKI:0.00
PC:31cc8     Total:2      MisBP:0   MisRate:0.00%    MPKI:0.00
PC:22e54     Total:11      MisBP:0   MisRate:0.00%    MPKI:0.00
PC:31cfc     Total:2      MisBP:0   MisRate:0.00%    MPKI:0.00
PC:2cd80     Total:2      MisBP:0   MisRate:0.00%    MPKI:0.00
PC:2cd82     Total:2      MisBP:0   MisRate:0.00%    MPKI:0.00
PC:2cd86     Total:4      MisBP:0   MisRate:0.00%    MPKI:0.00
PC:31d04     Total:1      MisBP:0   MisRate:0.00%    MPKI:0.00
PC:2cd88     Total:23      MisBP:0   MisRate:0.00%    MPKI:0.00
PC:2cb52     Total:2      MisBP:0   MisRate:0.00%    MPKI:0.00
PC:2d802     Total:1      MisBP:0   MisRate:0.00%    MPKI:0.00
PC:2d60e     Total:15      MisBP:0   MisRate:0.00%    MPKI:0.00
PC:2d634     Total:17      MisBP:0   MisRate:0.00%    MPKI:0.00
PC:1161a     Total:697      MisBP:0   MisRate:0.00%    MPKI:0.00
PC:2cb44     Total:2      MisBP:0   MisRate:0.00%    MPKI:0.00
PC:2ddae     Total:14      MisBP:0   MisRate:0.00%    MPKI:0.00
PC:11622     Total:2      MisBP:0   MisRate:0.00%    MPKI:0.00
PC:2cb4c     Total:2      MisBP:0   MisRate:0.00%    MPKI:0.00
PC:2ddb6     Total:14      MisBP:0   MisRate:0.00%    MPKI:0.00
PC:1554e     Total:334      MisBP:0   MisRate:0.00%    MPKI:0.00
PC:10a08     Total:19      MisBP:0   MisRate:0.00%    MPKI:0.00
PC:35e2a     Total:30      MisBP:0   MisRate:0.00%    MPKI:0.00
PC:10a14     Total:19      MisBP:0   MisRate:0.00%    MPKI:0.00
PC:35e36     Total:29      MisBP:0   MisRate:0.00%    MPKI:0.00
PC:2d650     Total:10      MisBP:0   MisRate:0.00%    MPKI:0.00
PC:148f0     Total:1534      MisBP:0   MisRate:0.00%    MPKI:0.00
PC:2d65c     Total:10      MisBP:0   MisRate:0.00%    MPKI:0.00
PC:2d66c     Total:26      MisBP:0   MisRate:0.00%    MPKI:0.00
PC:2cdfc     Total:4      MisBP:0   MisRate:0.00%    MPKI:0.00
PC:155d6     Total:57      MisBP:0   MisRate:0.00%    MPKI:0.00
PC:2bb84     Total:10      MisBP:0   MisRate:0.00%    MPKI:0.00
PC:2cdf0     Total:4      MisBP:0   MisRate:0.00%    MPKI:0.00
PC:2cdf2     Total:4      MisBP:0   MisRate:0.00%    MPKI:0.00
PC:155da     Total:8      MisBP:0   MisRate:0.00%    MPKI:0.00
PC:2bb88     Total:3      MisBP:0   MisRate:0.00%    MPKI:0.00
PC:2cdf6     Total:4      MisBP:0   MisRate:0.00%    MPKI:0.00
PC:2bb8c     Total:3      MisBP:0   MisRate:0.00%    MPKI:0.00
PC:2cdf8     Total:4      MisBP:0   MisRate:0.00%    MPKI:0.00
PC:115f2     Total:18713      MisBP:0   MisRate:0.00%    MPKI:0.00
PC:155e4     Total:1      MisBP:0   MisRate:0.00%    MPKI:0.00
PC:2bb92     Total:3      MisBP:0   MisRate:0.00%    MPKI:0.00
PC:2cdfe     Total:4      MisBP:0   MisRate:0.00%    MPKI:0.00
PC:15540     Total:336      MisBP:0   MisRate:0.00%    MPKI:0.00
PC:15544     Total:336      MisBP:0   MisRate:0.00%    MPKI:0.00
PC:15548     Total:336      MisBP:0   MisRate:0.00%    MPKI:0.00
PC:1554c     Total:334      MisBP:0   MisRate:0.00%    MPKI:0.00
PC:2d7fe     Total:1      MisBP:0   MisRate:0.00%    MPKI:0.00
PC:2d9d0     Total:1      MisBP:0   MisRate:0.00%    MPKI:0.00
PC:26e70     Total:12      MisBP:0   MisRate:0.00%    MPKI:0.00
PC:2dcfe     Total:1      MisBP:0   MisRate:0.00%    MPKI:0.00
PC:2d9be     Total:20      MisBP:0   MisRate:0.00%    MPKI:0.00
PC:2d9c2     Total:20      MisBP:0   MisRate:0.00%    MPKI:0.00
PC:2d9c4     Total:20      MisBP:0   MisRate:0.00%    MPKI:0.00
PC:2d9c6     Total:20      MisBP:0   MisRate:0.00%    MPKI:0.00
PC:2d9ca     Total:20      MisBP:0   MisRate:0.00%    MPKI:0.00
PC:2d9cc     Total:1      MisBP:0   MisRate:0.00%    MPKI:0.00
PC:2d9ce     Total:1      MisBP:0   MisRate:0.00%    MPKI:0.00
PC:2dcec     Total:1      MisBP:0   MisRate:0.00%    MPKI:0.00
PC:2d9d2     Total:1      MisBP:0   MisRate:0.00%    MPKI:0.00
PC:2d9d4     Total:1      MisBP:0   MisRate:0.00%    MPKI:0.00
PC:2d9d6     Total:1      MisBP:0   MisRate:0.00%    MPKI:0.00
PC:2f462     Total:23      MisBP:0   MisRate:0.00%    MPKI:0.00
PC:1177a     Total:6531      MisBP:0   MisRate:0.00%    MPKI:0.00
PC:2f466     Total:22      MisBP:0   MisRate:0.00%    MPKI:0.00
PC:1177e     Total:6235      MisBP:0   MisRate:0.00%    MPKI:0.00
PC:2f46a     Total:22      MisBP:0   MisRate:0.00%    MPKI:0.00
PC:2d9ac     Total:14      MisBP:0   MisRate:0.00%    MPKI:0.00
PC:2d8ca     Total:13      MisBP:0   MisRate:0.00%    MPKI:0.00
PC:2d8d4     Total:13      MisBP:0   MisRate:0.00%    MPKI:0.00
PC:2d8f0     Total:4      MisBP:0   MisRate:0.00%    MPKI:0.00
PC:2d988     Total:13      MisBP:0   MisRate:0.00%    MPKI:0.00
PC:2d98c     Total:13      MisBP:0   MisRate:0.00%    MPKI:0.00
PC:2d998     Total:13      MisBP:0   MisRate:0.00%    MPKI:0.00
PC:2d99c     Total:13      MisBP:0   MisRate:0.00%    MPKI:0.00
PC:2d9a4     Total:13      MisBP:0   MisRate:0.00%    MPKI:0.00
PC:2d9aa     Total:14      MisBP:0   MisRate:0.00%    MPKI:0.00
PC:11782     Total:6235      MisBP:0   MisRate:0.00%    MPKI:0.00
PC:2d9ae     Total:14      MisBP:0   MisRate:0.00%    MPKI:0.00
PC:2d9b0     Total:23      MisBP:0   MisRate:0.00%    MPKI:0.00
PC:2d9b2     Total:23      MisBP:0   MisRate:0.00%    MPKI:0.00
PC:2d9b4     Total:23      MisBP:0   MisRate:0.00%    MPKI:0.00
PC:2d9b6     Total:23      MisBP:0   MisRate:0.00%    MPKI:0.00
PC:2d9b8     Total:23      MisBP:0   MisRate:0.00%    MPKI:0.00
PC:2d9bc     Total:23      MisBP:0   MisRate:0.00%    MPKI:0.00
PC:2dcc8     Total:16      MisBP:0   MisRate:0.00%    MPKI:0.00
PC:2cafe     Total:22      MisBP:0   MisRate:0.00%    MPKI:0.00
PC:4a9b0     Total:9      MisBP:0   MisRate:0.00%    MPKI:0.00
PC:1179e     Total:2673      MisBP:0   MisRate:0.00%    MPKI:0.00
PC:2f488     Total:422      MisBP:0   MisRate:0.00%    MPKI:0.00
PC:117a0     Total:2673      MisBP:0   MisRate:0.00%    MPKI:0.00
PC:4a9b4     Total:3      MisBP:0   MisRate:0.00%    MPKI:0.00
PC:2f48a     Total:413      MisBP:0   MisRate:0.00%    MPKI:0.00
PC:117a2     Total:2602      MisBP:0   MisRate:0.00%    MPKI:0.00
PC:117a4     Total:2602      MisBP:0   MisRate:0.00%    MPKI:0.00
PC:115d4     Total:25864      MisBP:0   MisRate:0.00%    MPKI:0.00
PC:1179c     Total:2673      MisBP:0   MisRate:0.00%    MPKI:0.00
PC:115d8     Total:25860      MisBP:0   MisRate:0.00%    MPKI:0.00
PC:2cb02     Total:22      MisBP:0   MisRate:0.00%    MPKI:0.00
PC:115de     Total:25361      MisBP:0   MisRate:0.00%    MPKI:0.00
PC:2cb08     Total:22      MisBP:0   MisRate:0.00%    MPKI:0.00
PC:115ea     Total:25342      MisBP:0   MisRate:0.00%    MPKI:0.00
PC:2cb14     Total:22      MisBP:0   MisRate:0.00%    MPKI:0.00
PC:115ee     Total:18876      MisBP:0   MisRate:0.00%    MPKI:0.00
PC:2cb18     Total:20      MisBP:0   MisRate:0.00%    MPKI:0.00
PC:11790     Total:2673      MisBP:0   MisRate:0.00%    MPKI:0.00
PC:2f46c     Total:22      MisBP:0   MisRate:0.00%    MPKI:0.00
PC:11784     Total:6234      MisBP:0   MisRate:0.00%    MPKI:0.00
PC:2f46e     Total:22      MisBP:0   MisRate:0.00%    MPKI:0.00
PC:11786     Total:6234      MisBP:0   MisRate:0.00%    MPKI:0.00
PC:1178a     Total:6233      MisBP:0   MisRate:0.00%    MPKI:0.00
PC:2f474     Total:22      MisBP:0   MisRate:0.00%    MPKI:0.00
PC:1178c     Total:6233      MisBP:0   MisRate:0.00%    MPKI:0.00
PC:2f476     Total:22      MisBP:0   MisRate:0.00%    MPKI:0.00
PC:1178e     Total:2673      MisBP:0   MisRate:0.00%    MPKI:0.00
PC:10a12     Total:19      MisBP:0   MisRate:0.00%    MPKI:0.00
PC:2f47a     Total:22      MisBP:0   MisRate:0.00%    MPKI:0.00
PC:11792     Total:2673      MisBP:0   MisRate:0.00%    MPKI:0.00
PC:4a9a8     Total:40      MisBP:0   MisRate:0.00%    MPKI:0.00
PC:2f47e     Total:22      MisBP:0   MisRate:0.00%    MPKI:0.00
PC:11796     Total:2673      MisBP:0   MisRate:0.00%    MPKI:0.00
PC:4a9ac     Total:3      MisBP:0   MisRate:0.00%    MPKI:0.00
PC:1179a     Total:2673      MisBP:0   MisRate:0.00%    MPKI:0.00
PC:2f484     Total:19      MisBP:0   MisRate:0.00%    MPKI:0.00
PC:1095a     Total:116      MisBP:0   MisRate:0.00%    MPKI:0.00
PC:155f0     Total:16      MisBP:0   MisRate:0.00%    MPKI:0.00
PC:2bb9e     Total:1      MisBP:0   MisRate:0.00%    MPKI:0.00
PC:2bba0     Total:1      MisBP:0   MisRate:0.00%    MPKI:0.00
PC:2bba4     Total:4      MisBP:0   MisRate:0.00%    MPKI:0.00
PC:2d68c     Total:5      MisBP:0   MisRate:0.00%    MPKI:0.00
PC:2d698     Total:5      MisBP:0   MisRate:0.00%    MPKI:0.00
PC:10a3e     Total:2      MisBP:0   MisRate:0.00%    MPKI:0.00
PC:2d69c     Total:5      MisBP:0   MisRate:0.00%    MPKI:0.00
PC:10a42     Total:2      MisBP:0   MisRate:0.00%    MPKI:0.00
PC:2bb9c     Total:2      MisBP:0   MisRate:0.00%    MPKI:0.00
PC:30e00     Total:19      MisBP:0   MisRate:0.00%    MPKI:0.00
PC:1095e     Total:70      MisBP:0   MisRate:0.00%    MPKI:0.00
PC:30e04     Total:38      MisBP:0   MisRate:0.00%    MPKI:0.00
PC:10962     Total:70      MisBP:0   MisRate:0.00%    MPKI:0.00
PC:30e08     Total:19      MisBP:0   MisRate:0.00%    MPKI:0.00
PC:10966     Total:70      MisBP:0   MisRate:0.00%    MPKI:0.00
PC:30e0c     Total:19      MisBP:0   MisRate:0.00%    MPKI:0.00
PC:30e10     Total:19      MisBP:0   MisRate:0.00%    MPKI:0.00
PC:30e14     Total:19      MisBP:0   MisRate:0.00%    MPKI:0.00
PC:2d8ae     Total:8      MisBP:0   MisRate:0.00%    MPKI:0.00
PC:15608     Total:1      MisBP:0   MisRate:0.00%    MPKI:0.00
PC:2d8a0     Total:8      MisBP:0   MisRate:0.00%    MPKI:0.00
PC:2d8a2     Total:8      MisBP:0   MisRate:0.00%    MPKI:0.00
PC:155f4     Total:16      MisBP:0   MisRate:0.00%    MPKI:0.00
PC:2d8a6     Total:8      MisBP:0   MisRate:0.00%    MPKI:0.00
PC:155f8     Total:16      MisBP:0   MisRate:0.00%    MPKI:0.00
PC:155fa     Total:16      MisBP:0   MisRate:0.00%    MPKI:0.00
PC:2d8ac     Total:8      MisBP:0   MisRate:0.00%    MPKI:0.00
PC:155fc     Total:104      MisBP:0   MisRate:0.00%    MPKI:0.00
PC:10992     Total:74      MisBP:0   MisRate:0.00%    MPKI:0.00
PC:155d4     Total:9      MisBP:0   MisRate:0.00%    MPKI:0.00
PC:2bb82     Total:10      MisBP:0   MisRate:0.00%    MPKI:0.00
PC:155e2     Total:1      MisBP:0   MisRate:0.00%    MPKI:0.00
PC:2bb90     Total:3      MisBP:0   MisRate:0.00%    MPKI:0.00
PC:155e8     Total:1      MisBP:0   MisRate:0.00%    MPKI:0.00
PC:2bb96     Total:2      MisBP:0   MisRate:0.00%    MPKI:0.00
PC:2bb9a     Total:2      MisBP:0   MisRate:0.00%    MPKI:0.00
PC:155ee     Total:16      MisBP:0   MisRate:0.00%    MPKI:0.00
PC:30ea0     Total:11      MisBP:0   MisRate:0.00%    MPKI:0.00
PC:31cb0     Total:10      MisBP:0   MisRate:0.00%    MPKI:0.00
PC:31cb4     Total:5      MisBP:0   MisRate:0.00%    MPKI:0.00
PC:2cd3c     Total:60      MisBP:0   MisRate:0.00%    MPKI:0.00
PC:31cb8     Total:5      MisBP:0   MisRate:0.00%    MPKI:0.00
PC:31cbc     Total:4      MisBP:0   MisRate:0.00%    MPKI:0.00
PC:2ddf4     Total:1      MisBP:0   MisRate:0.00%    MPKI:0.00
PC:2ddf8     Total:1      MisBP:0   MisRate:0.00%    MPKI:0.00
PC:2ddfc     Total:1      MisBP:0   MisRate:0.00%    MPKI:0.00
PC:109fa     Total:20      MisBP:0   MisRate:0.00%    MPKI:0.00
PC:31cac     Total:5      MisBP:0   MisRate:0.00%    MPKI:0.00
PC:2d890     Total:8      MisBP:0   MisRate:0.00%    MPKI:0.00
PC:2d894     Total:8      MisBP:0   MisRate:0.00%    MPKI:0.00
PC:2d896     Total:8      MisBP:0   MisRate:0.00%    MPKI:0.00
PC:2d89a     Total:8      MisBP:0   MisRate:0.00%    MPKI:0.00
PC:2d89c     Total:8      MisBP:0   MisRate:0.00%    MPKI:0.00
PC:2d8a8     Total:8      MisBP:0   MisRate:0.00%    MPKI:0.00
PC:2d6ae     Total:2      MisBP:0   MisRate:0.00%    MPKI:0.00
PC:2d6b4     Total:2      MisBP:0   MisRate:0.00%    MPKI:0.00
PC:2d6aa     Total:4      MisBP:0   MisRate:0.00%    MPKI:0.00
PC:30e38     Total:32      MisBP:0   MisRate:0.00%    MPKI:0.00
PC:10996     Total:42      MisBP:0   MisRate:0.00%    MPKI:0.00
PC:30e3c     Total:31      MisBP:0   MisRate:0.00%    MPKI:0.00
PC:109ce     Total:86      MisBP:0   MisRate:0.00%    MPKI:0.00
PC:30e74     Total:22      MisBP:0   MisRate:0.00%    MPKI:0.00
PC:2d6a0     Total:4      MisBP:0   MisRate:0.00%    MPKI:0.00
PC:10a46     Total:1      MisBP:0   MisRate:0.00%    MPKI:0.00
PC:2d6a6     Total:4      MisBP:0   MisRate:0.00%    MPKI:0.00
PC:10a4c     Total:1      MisBP:0   MisRate:0.00%    MPKI:0.00
PC:2d8b4     Total:8      MisBP:0   MisRate:0.00%    MPKI:0.00
PC:2d80c     Total:1      MisBP:0   MisRate:0.00%    MPKI:0.00
PC:2d812     Total:1      MisBP:0   MisRate:0.00%    MPKI:0.00
PC:2d81a     Total:1      MisBP:0   MisRate:0.00%    MPKI:0.00
PC:2d81e     Total:1      MisBP:0   MisRate:0.00%    MPKI:0.00
PC:2d824     Total:1      MisBP:0   MisRate:0.00%    MPKI:0.00
PC:31ca0     Total:5      MisBP:0   MisRate:0.00%    MPKI:0.00
PC:31ca4     Total:5      MisBP:0   MisRate:0.00%    MPKI:0.00
PC:31ca8     Total:5      MisBP:0   MisRate:0.00%    MPKI:0.00
PC:10a1c     Total:18      MisBP:0   MisRate:0.00%    MPKI:0.00
PC:2c93c     Total:2      MisBP:0   MisRate:0.00%    MPKI:0.00
PC:2d444     Total:20      MisBP:0   MisRate:0.00%    MPKI:0.00
PC:2d44c     Total:20      MisBP:0   MisRate:0.00%    MPKI:0.00
PC:2d454     Total:16      MisBP:0   MisRate:0.00%    MPKI:0.00
PC:2d45e     Total:16      MisBP:0   MisRate:0.00%    MPKI:0.00
PC:2d464     Total:16      MisBP:0   MisRate:0.00%    MPKI:0.00
PC:2d472     Total:16      MisBP:0   MisRate:0.00%    MPKI:0.00
PC:2d482     Total:1      MisBP:0   MisRate:0.00%    MPKI:0.00
PC:2d486     Total:1      MisBP:0   MisRate:0.00%    MPKI:0.00
PC:2c932     Total:2      MisBP:0   MisRate:0.00%    MPKI:0.00
PC:2d676     Total:6      MisBP:0   MisRate:0.00%    MPKI:0.00
PC:10a20     Total:18      MisBP:0   MisRate:0.00%    MPKI:0.00
PC:10a24     Total:18      MisBP:0   MisRate:0.00%    MPKI:0.00
PC:10a36     Total:3      MisBP:0   MisRate:0.00%    MPKI:0.00
PC:10a3a     Total:3      MisBP:0   MisRate:0.00%    MPKI:0.00
PC:2d694     Total:5      MisBP:0   MisRate:0.00%    MPKI:0.00
PC:2ddb2     Total:14      MisBP:0   MisRate:0.00%    MPKI:0.00
PC:2ddba     Total:14      MisBP:0   MisRate:0.00%    MPKI:0.00
PC:2c914     Total:2      MisBP:0   MisRate:0.00%    MPKI:0.00
PC:2d670     Total:7      MisBP:0   MisRate:0.00%    MPKI:0.00
PC:2c900     Total:2      MisBP:0   MisRate:0.00%    MPKI:0.00
PC:2c904     Total:2      MisBP:0   MisRate:0.00%    MPKI:0.00
PC:2c906     Total:2      MisBP:0   MisRate:0.00%    MPKI:0.00
PC:2c908     Total:2      MisBP:0   MisRate:0.00%    MPKI:0.00
PC:2c90a     Total:2      MisBP:0   MisRate:0.00%    MPKI:0.00
PC:2c90c     Total:2      MisBP:0   MisRate:0.00%    MPKI:0.00
PC:2c90e     Total:2      MisBP:0   MisRate:0.00%    MPKI:0.00
PC:2c910     Total:2      MisBP:0   MisRate:0.00%    MPKI:0.00
PC:2ddbe     Total:12      MisBP:0   MisRate:0.00%    MPKI:0.00
PC:2c918     Total:2      MisBP:0   MisRate:0.00%    MPKI:0.00
PC:2c91a     Total:2      MisBP:0   MisRate:0.00%    MPKI:0.00
PC:2c91c     Total:2      MisBP:0   MisRate:0.00%    MPKI:0.00
PC:2c91e     Total:2      MisBP:0   MisRate:0.00%    MPKI:0.00
PC:2c922     Total:2      MisBP:0   MisRate:0.00%    MPKI:0.00
PC:2c926     Total:2      MisBP:0   MisRate:0.00%    MPKI:0.00
PC:2c928     Total:2      MisBP:0   MisRate:0.00%    MPKI:0.00
PC:2c92e     Total:2      MisBP:0   MisRate:0.00%    MPKI:0.00
PC:2bb62     Total:11      MisBP:0   MisRate:0.00%    MPKI:0.00
PC:155a8     Total:117      MisBP:0   MisRate:0.00%    MPKI:0.00
PC:2bb56     Total:11      MisBP:0   MisRate:0.00%    MPKI:0.00
PC:155ac     Total:117      MisBP:0   MisRate:0.00%    MPKI:0.00
PC:2bb5a     Total:11      MisBP:0   MisRate:0.00%    MPKI:0.00
PC:155b0     Total:117      MisBP:0   MisRate:0.00%    MPKI:0.00
PC:2bb5e     Total:11      MisBP:0   MisRate:0.00%    MPKI:0.00
PC:155b2     Total:117      MisBP:0   MisRate:0.00%    MPKI:0.00
PC:2bb60     Total:11      MisBP:0   MisRate:0.00%    MPKI:0.00
PC:155b4     Total:779      MisBP:0   MisRate:0.00%    MPKI:0.00
PC:2bb52     Total:11      MisBP:0   MisRate:0.00%    MPKI:0.00
PC:155b8     Total:8      MisBP:0   MisRate:0.00%    MPKI:0.00
PC:2bb66     Total:11      MisBP:0   MisRate:0.00%    MPKI:0.00
PC:2bb6c     Total:11      MisBP:0   MisRate:0.00%    MPKI:0.00
PC:155c2     Total:9      MisBP:0   MisRate:0.00%    MPKI:0.00
PC:2bb70     Total:11      MisBP:0   MisRate:0.00%    MPKI:0.00
PC:2bb7a     Total:11      MisBP:0   MisRate:0.00%    MPKI:0.00
PC:15600     Total:9      MisBP:0   MisRate:0.00%    MPKI:0.00
PC:2d8b2     Total:8      MisBP:0   MisRate:0.00%    MPKI:0.00
PC:2dde4     Total:11      MisBP:0   MisRate:0.00%    MPKI:0.00
PC:2ddc2     Total:12      MisBP:0   MisRate:0.00%    MPKI:0.00
PC:2ddc6     Total:12      MisBP:0   MisRate:0.00%    MPKI:0.00
PC:2ddca     Total:12      MisBP:0   MisRate:0.00%    MPKI:0.00
PC:2ddce     Total:11      MisBP:0   MisRate:0.00%    MPKI:0.00
PC:2ddd2     Total:11      MisBP:0   MisRate:0.00%    MPKI:0.00
PC:2ddd6     Total:11      MisBP:0   MisRate:0.00%    MPKI:0.00
PC:2ddda     Total:11      MisBP:0   MisRate:0.00%    MPKI:0.00
PC:2ddde     Total:11      MisBP:0   MisRate:0.00%    MPKI:0.00
PC:2dde2     Total:11      MisBP:0   MisRate:0.00%    MPKI:0.00
PC:1560a     Total:1      MisBP:0   MisRate:0.00%    MPKI:0.00
PC:1558e     Total:106      MisBP:0   MisRate:0.00%    MPKI:0.00
PC:2bb3c     Total:11      MisBP:0   MisRate:0.00%    MPKI:0.00
PC:15592     Total:106      MisBP:0   MisRate:0.00%    MPKI:0.00
PC:2bb40     Total:33      MisBP:0   MisRate:0.00%    MPKI:0.00
PC:1559a     Total:985      MisBP:0   MisRate:0.00%    MPKI:0.00
PC:2bb48     Total:11      MisBP:0   MisRate:0.00%    MPKI:0.00
PC:1559e     Total:114      MisBP:0   MisRate:0.00%    MPKI:0.00
PC:2bb4c     Total:11      MisBP:0   MisRate:0.00%    MPKI:0.00
PC:2c9ce     Total:74      MisBP:0   MisRate:0.00%    MPKI:0.00
PC:2cc76     Total:1      MisBP:0   MisRate:0.00%    MPKI:0.00
PC:2f438     Total:642      MisBP:0   MisRate:0.00%    MPKI:0.00
PC:11750     Total:14004      MisBP:0   MisRate:0.00%    MPKI:0.00
PC:2cc7a     Total:1      MisBP:0   MisRate:0.00%    MPKI:0.00
PC:2c9be     Total:74      MisBP:0   MisRate:0.00%    MPKI:0.00
PC:2c9c2     Total:74      MisBP:0   MisRate:0.00%    MPKI:0.00
PC:2c9c4     Total:74      MisBP:0   MisRate:0.00%    MPKI:0.00
PC:2c9c8     Total:74      MisBP:0   MisRate:0.00%    MPKI:0.00
PC:2c9ca     Total:74      MisBP:0   MisRate:0.00%    MPKI:0.00
PC:1174c     Total:8113      MisBP:0   MisRate:0.00%    MPKI:0.00
PC:2c9d2     Total:74      MisBP:0   MisRate:0.00%    MPKI:0.00
PC:2c9d6     Total:74      MisBP:0   MisRate:0.00%    MPKI:0.00
PC:2c9d8     Total:57      MisBP:0   MisRate:0.00%    MPKI:0.00
PC:2c9dc     Total:57      MisBP:0   MisRate:0.00%    MPKI:0.00
PC:2c9de     Total:57      MisBP:0   MisRate:0.00%    MPKI:0.00
PC:2c9e0     Total:57      MisBP:0   MisRate:0.00%    MPKI:0.00
PC:2c9e4     Total:57      MisBP:0   MisRate:0.00%    MPKI:0.00
PC:2c9e6     Total:57      MisBP:0   MisRate:0.00%    MPKI:0.00
PC:2c9ea     Total:4      MisBP:0   MisRate:0.00%    MPKI:0.00
PC:2cc6c     Total:34      MisBP:0   MisRate:0.00%    MPKI:0.00
PC:2cc5c     Total:35      MisBP:0   MisRate:0.00%    MPKI:0.00
PC:2cc5e     Total:35      MisBP:0   MisRate:0.00%    MPKI:0.00
PC:11736     Total:10989      MisBP:0   MisRate:0.00%    MPKI:0.00
PC:2cc60     Total:35      MisBP:0   MisRate:0.00%    MPKI:0.00
PC:2cc64     Total:35      MisBP:0   MisRate:0.00%    MPKI:0.00
PC:1173c     Total:8455      MisBP:0   MisRate:0.00%    MPKI:0.00
PC:2cc66     Total:35      MisBP:0   MisRate:0.00%    MPKI:0.00
PC:11740     Total:8120      MisBP:0   MisRate:0.00%    MPKI:0.00
PC:2cc6a     Total:35      MisBP:0   MisRate:0.00%    MPKI:0.00
PC:2c9ec     Total:4      MisBP:0   MisRate:0.00%    MPKI:0.00
PC:11746     Total:8114      MisBP:0   MisRate:0.00%    MPKI:0.00
PC:2cc70     Total:34      MisBP:0   MisRate:0.00%    MPKI:0.00
PC:2f430     Total:1284      MisBP:0   MisRate:0.00%    MPKI:0.00
PC:11748     Total:8113      MisBP:0   MisRate:0.00%    MPKI:0.00
PC:2cc72     Total:34      MisBP:0   MisRate:0.00%    MPKI:0.00
PC:2f432     Total:642      MisBP:0   MisRate:0.00%    MPKI:0.00
PC:1174a     Total:8113      MisBP:0   MisRate:0.00%    MPKI:0.00
PC:2cc74     Total:34      MisBP:0   MisRate:0.00%    MPKI:0.00
PC:114f2     Total:234      MisBP:0   MisRate:0.00%    MPKI:0.00
PC:2ca0e     Total:2      MisBP:0   MisRate:0.00%    MPKI:0.00
PC:114e6     Total:253      MisBP:0   MisRate:0.00%    MPKI:0.00
PC:2ca10     Total:2      MisBP:0   MisRate:0.00%    MPKI:0.00
PC:2ca12     Total:2      MisBP:0   MisRate:0.00%    MPKI:0.00
PC:114ea     Total:252      MisBP:0   MisRate:0.00%    MPKI:0.00
PC:2ca14     Total:1      MisBP:0   MisRate:0.00%    MPKI:0.00
PC:114ec     Total:235      MisBP:0   MisRate:0.00%    MPKI:0.00
PC:2ca16     Total:1      MisBP:0   MisRate:0.00%    MPKI:0.00
PC:2ca18     Total:1      MisBP:0   MisRate:0.00%    MPKI:0.00
PC:114e4     Total:253      MisBP:0   MisRate:0.00%    MPKI:0.00
PC:2ca1c     Total:1      MisBP:0   MisRate:0.00%    MPKI:0.00
PC:114f4     Total:234      MisBP:0   MisRate:0.00%    MPKI:0.00
PC:2ca1e     Total:1      MisBP:0   MisRate:0.00%    MPKI:0.00
PC:114f6     Total:234      MisBP:0   MisRate:0.00%    MPKI:0.00
PC:2ca20     Total:1      MisBP:0   MisRate:0.00%    MPKI:0.00
PC:114f8     Total:233      MisBP:0   MisRate:0.00%    MPKI:0.00
PC:2ca22     Total:1      MisBP:0   MisRate:0.00%    MPKI:0.00
PC:114fc     Total:230      MisBP:0   MisRate:0.00%    MPKI:0.00
PC:2cf60     Total:3      MisBP:0   MisRate:0.00%    MPKI:0.00
PC:2c9ee     Total:4      MisBP:0   MisRate:0.00%    MPKI:0.00
PC:2c9f0     Total:4      MisBP:0   MisRate:0.00%    MPKI:0.00
PC:2c9f2     Total:4      MisBP:0   MisRate:0.00%    MPKI:0.00
PC:2c9f4     Total:4      MisBP:0   MisRate:0.00%    MPKI:0.00
PC:2c9f6     Total:4      MisBP:0   MisRate:0.00%    MPKI:0.00
PC:2c9f8     Total:4      MisBP:0   MisRate:0.00%    MPKI:0.00
PC:2c9fc     Total:4      MisBP:0   MisRate:0.00%    MPKI:0.00
PC:2c9fe     Total:3      MisBP:0   MisRate:0.00%    MPKI:0.00
PC:2cf52     Total:3      MisBP:0   MisRate:0.00%    MPKI:0.00
PC:11732     Total:10991      MisBP:0   MisRate:0.00%    MPKI:0.00
PC:2cf6e     Total:3      MisBP:0   MisRate:0.00%    MPKI:0.00
PC:2ca00     Total:2      MisBP:0   MisRate:0.00%    MPKI:0.00
PC:2ca04     Total:2      MisBP:0   MisRate:0.00%    MPKI:0.00
PC:114dc     Total:255      MisBP:0   MisRate:0.00%    MPKI:0.00
PC:2ca06     Total:2      MisBP:0   MisRate:0.00%    MPKI:0.00
PC:114de     Total:255      MisBP:0   MisRate:0.00%    MPKI:0.00
PC:2ca08     Total:2      MisBP:0   MisRate:0.00%    MPKI:0.00
PC:2ca0a     Total:2      MisBP:0   MisRate:0.00%    MPKI:0.00
PC:2c8da     Total:7      MisBP:0   MisRate:0.00%    MPKI:0.00
PC:2d63e     Total:19      MisBP:0   MisRate:0.00%    MPKI:0.00
PC:2c8c0     Total:10      MisBP:0   MisRate:0.00%    MPKI:0.00
PC:2c8c4     Total:10      MisBP:0   MisRate:0.00%    MPKI:0.00
PC:2c8c6     Total:10      MisBP:0   MisRate:0.00%    MPKI:0.00
PC:2c8ca     Total:10      MisBP:0   MisRate:0.00%    MPKI:0.00
PC:2c8ce     Total:10      MisBP:0   MisRate:0.00%    MPKI:0.00
PC:2c8d2     Total:10      MisBP:0   MisRate:0.00%    MPKI:0.00
PC:2c8d4     Total:10      MisBP:0   MisRate:0.00%    MPKI:0.00
PC:2c8d8     Total:10      MisBP:0   MisRate:0.00%    MPKI:0.00
PC:148d2     Total:478      MisBP:0   MisRate:0.00%    MPKI:0.00
PC:2c8de     Total:7      MisBP:0   MisRate:0.00%    MPKI:0.00
PC:2c8e0     Total:7      MisBP:0   MisRate:0.00%    MPKI:0.00
PC:2c8e4     Total:7      MisBP:0   MisRate:0.00%    MPKI:0.00
PC:2c8e6     Total:7      MisBP:0   MisRate:0.00%    MPKI:0.00
PC:2c8e8     Total:7      MisBP:0   MisRate:0.00%    MPKI:0.00
PC:2c8ec     Total:7      MisBP:0   MisRate:0.00%    MPKI:0.00
PC:2c8ee     Total:7      MisBP:0   MisRate:0.00%    MPKI:0.00
PC:2c8f2     Total:5      MisBP:0   MisRate:0.00%    MPKI:0.00
PC:2f4a4     Total:375      MisBP:0   MisRate:0.00%    MPKI:0.00
PC:117b0     Total:10      MisBP:0   MisRate:0.00%    MPKI:0.00
PC:4a9c6     Total:2      MisBP:0   MisRate:0.00%    MPKI:0.00
PC:117b4     Total:1      MisBP:0   MisRate:0.00%    MPKI:0.00
PC:4a9c8     Total:2      MisBP:0   MisRate:0.00%    MPKI:0.00
PC:2f49e     Total:377      MisBP:0   MisRate:0.00%    MPKI:0.00
PC:117b6     Total:1      MisBP:0   MisRate:0.00%    MPKI:0.00
PC:4a9cc     Total:2      MisBP:0   MisRate:0.00%    MPKI:0.00
PC:2f4a2     Total:375      MisBP:0   MisRate:0.00%    MPKI:0.00
PC:117ba     Total:1      MisBP:0   MisRate:0.00%    MPKI:0.00
PC:2c8f4     Total:5      MisBP:0   MisRate:0.00%    MPKI:0.00
PC:117bc     Total:1      MisBP:0   MisRate:0.00%    MPKI:0.00
PC:4a9d0     Total:2      MisBP:0   MisRate:0.00%    MPKI:0.00
PC:117be     Total:1      MisBP:0   MisRate:0.00%    MPKI:0.00
PC:109cc     Total:86      MisBP:0   MisRate:0.00%    MPKI:0.00
PC:2d626     Total:302      MisBP:0   MisRate:0.00%    MPKI:0.00
PC:2d62e     Total:17      MisBP:0   MisRate:0.00%    MPKI:0.00
PC:30e8a     Total:17      MisBP:0   MisRate:0.00%    MPKI:0.00
PC:109e4     Total:20      MisBP:0   MisRate:0.00%    MPKI:0.00
PC:2cc50     Total:36      MisBP:0   MisRate:0.00%    MPKI:0.00
PC:11716     Total:5939      MisBP:0   MisRate:0.00%    MPKI:0.00
PC:2cc40     Total:36      MisBP:0   MisRate:0.00%    MPKI:0.00
PC:2cc44     Total:36      MisBP:0   MisRate:0.00%    MPKI:0.00
PC:1171e     Total:5626      MisBP:0   MisRate:0.00%    MPKI:0.00
PC:2cc48     Total:36      MisBP:0   MisRate:0.00%    MPKI:0.00
PC:2cc4a     Total:36      MisBP:0   MisRate:0.00%    MPKI:0.00
PC:11722     Total:5624      MisBP:0   MisRate:0.00%    MPKI:0.00
PC:2cc4c     Total:36      MisBP:0   MisRate:0.00%    MPKI:0.00
PC:11726     Total:5623      MisBP:0   MisRate:0.00%    MPKI:0.00
PC:2cc3e     Total:44      MisBP:0   MisRate:0.00%    MPKI:0.00
PC:11728     Total:5554      MisBP:0   MisRate:0.00%    MPKI:0.00
PC:2cc52     Total:36      MisBP:0   MisRate:0.00%    MPKI:0.00
PC:1172a     Total:5552      MisBP:0   MisRate:0.00%    MPKI:0.00
PC:2cc54     Total:36      MisBP:0   MisRate:0.00%    MPKI:0.00
PC:1172e     Total:5546      MisBP:0   MisRate:0.00%    MPKI:0.00
PC:2cc58     Total:35      MisBP:0   MisRate:0.00%    MPKI:0.00
PC:11730     Total:10993      MisBP:0   MisRate:0.00%    MPKI:0.00
PC:2cc5a     Total:35      MisBP:0   MisRate:0.00%    MPKI:0.00
PC:2c9a4     Total:80      MisBP:0   MisRate:0.00%    MPKI:0.00
PC:2c8f6     Total:5      MisBP:0   MisRate:0.00%    MPKI:0.00
PC:2c8fa     Total:5      MisBP:0   MisRate:0.00%    MPKI:0.00
PC:2c8fe     Total:5      MisBP:0   MisRate:0.00%    MPKI:0.00
PC:2c98c     Total:111      MisBP:0   MisRate:0.00%    MPKI:0.00
PC:2c990     Total:111      MisBP:0   MisRate:0.00%    MPKI:0.00
PC:2c994     Total:111      MisBP:0   MisRate:0.00%    MPKI:0.00
PC:2c99c     Total:80      MisBP:0   MisRate:0.00%    MPKI:0.00
PC:2c99e     Total:80      MisBP:0   MisRate:0.00%    MPKI:0.00
PC:2c9a2     Total:80      MisBP:0   MisRate:0.00%    MPKI:0.00
PC:2ca26     Total:1      MisBP:0   MisRate:0.00%    MPKI:0.00
PC:2c9a6     Total:64      MisBP:0   MisRate:0.00%    MPKI:0.00
PC:2c9aa     Total:64      MisBP:0   MisRate:0.00%    MPKI:0.00
PC:2c9ae     Total:64      MisBP:0   MisRate:0.00%    MPKI:0.00
PC:2c9b2     Total:64      MisBP:0   MisRate:0.00%    MPKI:0.00
PC:2c9b4     Total:64      MisBP:0   MisRate:0.00%    MPKI:0.00
PC:2c9b6     Total:96      MisBP:0   MisRate:0.00%    MPKI:0.00
PC:2c9b8     Total:96      MisBP:0   MisRate:0.00%    MPKI:0.00
PC:11714     Total:5945      MisBP:0   MisRate:0.00%    MPKI:0.00
PC:330f8     Total:36      MisBP:0   MisRate:0.00%    MPKI:0.00
PC:31cec     Total:2      MisBP:0   MisRate:0.00%    MPKI:0.00
PC:2cd70     Total:2      MisBP:0   MisRate:0.00%    MPKI:0.00
PC:2cd72     Total:2      MisBP:0   MisRate:0.00%    MPKI:0.00
PC:2cd76     Total:2      MisBP:0   MisRate:0.00%    MPKI:0.00
PC:2cd7a     Total:2      MisBP:0   MisRate:0.00%    MPKI:0.00
PC:2cd7e     Total:3      MisBP:0   MisRate:0.00%    MPKI:0.00
PC:2c986     Total:48      MisBP:0   MisRate:0.00%    MPKI:0.00
PC:2c988     Total:336      MisBP:0   MisRate:0.00%    MPKI:0.00
PC:330f2     Total:69      MisBP:0   MisRate:0.00%    MPKI:0.00
PC:2cd6c     Total:2      MisBP:0   MisRate:0.00%    MPKI:0.00
PC:33128     Total:1      MisBP:0   MisRate:0.00%    MPKI:0.00
PC:15440     Total:326      MisBP:0   MisRate:0.00%    MPKI:0.00
PC:30e30     Total:32      MisBP:0   MisRate:0.00%    MPKI:0.00
PC:3312c     Total:1      MisBP:0   MisRate:0.00%    MPKI:0.00
PC:15444     Total:81      MisBP:0   MisRate:0.00%    MPKI:0.00
PC:30e34     Total:32      MisBP:0   MisRate:0.00%    MPKI:0.00
PC:15446     Total:81      MisBP:0   MisRate:0.00%    MPKI:0.00
PC:33132     Total:1      MisBP:0   MisRate:0.00%    MPKI:0.00
PC:1544a     Total:81      MisBP:0   MisRate:0.00%    MPKI:0.00
PC:2cd5e     Total:13      MisBP:0   MisRate:0.00%    MPKI:0.00
PC:31ccc     Total:2      MisBP:0   MisRate:0.00%    MPKI:0.00
PC:2cd50     Total:51      MisBP:0   MisRate:0.00%    MPKI:0.00
PC:2cd52     Total:51      MisBP:0   MisRate:0.00%    MPKI:0.00
PC:31cd0     Total:6      MisBP:0   MisRate:0.00%    MPKI:0.00
PC:31cd4     Total:2      MisBP:0   MisRate:0.00%    MPKI:0.00
PC:2cd58     Total:13      MisBP:0   MisRate:0.00%    MPKI:0.00
PC:2cd5a     Total:13      MisBP:0   MisRate:0.00%    MPKI:0.00
PC:31cd8     Total:6      MisBP:0   MisRate:0.00%    MPKI:0.00
PC:2cd5c     Total:13      MisBP:0   MisRate:0.00%    MPKI:0.00
PC:33136     Total:1      MisBP:0   MisRate:0.00%    MPKI:0.00
PC:31cdc     Total:2      MisBP:0   MisRate:0.00%    MPKI:0.00
PC:2cd60     Total:13      MisBP:0   MisRate:0.00%    MPKI:0.00
PC:31ce0     Total:6      MisBP:0   MisRate:0.00%    MPKI:0.00
PC:2cd64     Total:13      MisBP:0   MisRate:0.00%    MPKI:0.00
PC:31ce4     Total:2      MisBP:0   MisRate:0.00%    MPKI:0.00
PC:2cd68     Total:11      MisBP:0   MisRate:0.00%    MPKI:0.00
PC:2cd6a     Total:2      MisBP:0   MisRate:0.00%    MPKI:0.00
PC:31ce8     Total:6      MisBP:0   MisRate:0.00%    MPKI:0.00
PC:2d7f4     Total:2      MisBP:0   MisRate:0.00%    MPKI:0.00
PC:2d792     Total:1      MisBP:0   MisRate:0.00%    MPKI:0.00
PC:2d798     Total:1      MisBP:0   MisRate:0.00%    MPKI:0.00
PC:154e6     Total:59      MisBP:0   MisRate:0.00%    MPKI:0.00
PC:2d7bc     Total:1      MisBP:0   MisRate:0.00%    MPKI:0.00
PC:2d7dc     Total:15      MisBP:0   MisRate:0.00%    MPKI:0.00
PC:1552a     Total:289      MisBP:0   MisRate:0.00%    MPKI:0.00
PC:2d7ea     Total:4      MisBP:0   MisRate:0.00%    MPKI:0.00
PC:15538     Total:285      MisBP:0   MisRate:0.00%    MPKI:0.00
PC:2d7f0     Total:2      MisBP:0   MisRate:0.00%    MPKI:0.00
PC:2d78e     Total:1      MisBP:0   MisRate:0.00%    MPKI:0.00
PC:2d7f8     Total:2      MisBP:0   MisRate:0.00%    MPKI:0.00
PC:15546     Total:336      MisBP:0   MisRate:0.00%    MPKI:0.00
PC:2d7fc     Total:2      MisBP:0   MisRate:0.00%    MPKI:0.00
PC:2d8b6     Total:14      MisBP:0   MisRate:0.00%    MPKI:0.00
PC:15604     Total:9      MisBP:0   MisRate:0.00%    MPKI:0.00
PC:2d8b8     Total:14      MisBP:0   MisRate:0.00%    MPKI:0.00
PC:15606     Total:1      MisBP:0   MisRate:0.00%    MPKI:0.00
PC:2d8bc     Total:14      MisBP:0   MisRate:0.00%    MPKI:0.00
PC:109be     Total:126      MisBP:0   MisRate:0.00%    MPKI:0.00
PC:1544e     Total:81      MisBP:0   MisRate:0.00%    MPKI:0.00
PC:3313a     Total:1      MisBP:0   MisRate:0.00%    MPKI:0.00
PC:1099c     Total:165      MisBP:0   MisRate:0.00%    MPKI:0.00
PC:30e42     Total:23      MisBP:0   MisRate:0.00%    MPKI:0.00
PC:15456     Total:81      MisBP:0   MisRate:0.00%    MPKI:0.00
PC:109a0     Total:164      MisBP:0   MisRate:0.00%    MPKI:0.00
PC:30e46     Total:23      MisBP:0   MisRate:0.00%    MPKI:0.00
PC:15464     Total:80      MisBP:0   MisRate:0.00%    MPKI:0.00
PC:15474     Total:362      MisBP:0   MisRate:0.00%    MPKI:0.00
PC:2cd4e     Total:51      MisBP:0   MisRate:0.00%    MPKI:0.00
PC:30e64     Total:22      MisBP:0   MisRate:0.00%    MPKI:0.00
PC:1547e     Total:55      MisBP:0   MisRate:0.00%    MPKI:0.00
PC:109d4     Total:85      MisBP:0   MisRate:0.00%    MPKI:0.00
PC:30e7a     Total:21      MisBP:0   MisRate:0.00%    MPKI:0.00
PC:2bb50     Total:11      MisBP:0   MisRate:0.00%    MPKI:0.00
PC:2d780     Total:11      MisBP:0   MisRate:0.00%    MPKI:0.00
PC:2d788     Total:11      MisBP:0   MisRate:0.00%    MPKI:0.00
PC:154d6     Total:168      MisBP:0   MisRate:0.00%    MPKI:0.00
PC:2ca7a     Total:64      MisBP:0   MisRate:0.00%    MPKI:0.00
PC:11526     Total:118      MisBP:0   MisRate:0.00%    MPKI:0.00
PC:2ca50     Total:17      MisBP:0   MisRate:0.00%    MPKI:0.00
PC:2dcba     Total:11      MisBP:0   MisRate:0.00%    MPKI:0.00
PC:26e3e     Total:60      MisBP:0   MisRate:0.00%    MPKI:0.00
PC:11548     Total:63      MisBP:0   MisRate:0.00%    MPKI:0.00
PC:2ca72     Total:64      MisBP:0   MisRate:0.00%    MPKI:0.00
PC:2dcdc     Total:16      MisBP:0   MisRate:0.00%    MPKI:0.00
PC:26e60     Total:12      MisBP:0   MisRate:0.00%    MPKI:0.00
PC:11550     Total:62      MisBP:0   MisRate:0.00%    MPKI:0.00
PC:1151a     Total:173      MisBP:0   MisRate:0.00%    MPKI:0.00
PC:2dce4     Total:1      MisBP:0   MisRate:0.00%    MPKI:0.00
PC:11574     Total:56      MisBP:0   MisRate:0.00%    MPKI:0.00
PC:2ca9e     Total:63      MisBP:0   MisRate:0.00%    MPKI:0.00
PC:26e8c     Total:24      MisBP:0   MisRate:0.00%    MPKI:0.00
PC:1157c     Total:17816      MisBP:0   MisRate:0.00%    MPKI:0.00
PC:2caa6     Total:27      MisBP:0   MisRate:0.00%    MPKI:0.00
PC:26e94     Total:11      MisBP:0   MisRate:0.00%    MPKI:0.00
PC:11588     Total:17123      MisBP:0   MisRate:0.00%    MPKI:0.00
PC:2ca34     Total:52      MisBP:0   MisRate:0.00%    MPKI:0.00
PC:2ca28     Total:1      MisBP:0   MisRate:0.00%    MPKI:0.00
PC:11500     Total:214      MisBP:0   MisRate:0.00%    MPKI:0.00
PC:2ca2a     Total:1      MisBP:0   MisRate:0.00%    MPKI:0.00
PC:11504     Total:214      MisBP:0   MisRate:0.00%    MPKI:0.00
PC:2ca2e     Total:1      MisBP:0   MisRate:0.00%    MPKI:0.00
PC:11506     Total:214      MisBP:0   MisRate:0.00%    MPKI:0.00
PC:2ca30     Total:1      MisBP:0   MisRate:0.00%    MPKI:0.00
PC:2ca32     Total:1      MisBP:0   MisRate:0.00%    MPKI:0.00
PC:1150a     Total:214      MisBP:0   MisRate:0.00%    MPKI:0.00
PC:2cab2     Total:27      MisBP:0   MisRate:0.00%    MPKI:0.00
PC:2ca36     Total:52      MisBP:0   MisRate:0.00%    MPKI:0.00
PC:1150e     Total:210      MisBP:0   MisRate:0.00%    MPKI:0.00
PC:2ca38     Total:52      MisBP:0   MisRate:0.00%    MPKI:0.00
PC:11512     Total:210      MisBP:0   MisRate:0.00%    MPKI:0.00
PC:2ca3c     Total:52      MisBP:0   MisRate:0.00%    MPKI:0.00
PC:11516     Total:176      MisBP:0   MisRate:0.00%    MPKI:0.00
PC:2ca40     Total:44      MisBP:0   MisRate:0.00%    MPKI:0.00
PC:2ca42     Total:44      MisBP:0   MisRate:0.00%    MPKI:0.00
PC:2cd32     Total:56      MisBP:0   MisRate:0.00%    MPKI:0.00
PC:2cae2     Total:26      MisBP:0   MisRate:0.00%    MPKI:0.00
PC:35e32     Total:30      MisBP:0   MisRate:0.00%    MPKI:0.00
PC:115c0     Total:25883      MisBP:0   MisRate:0.00%    MPKI:0.00
PC:2caea     Total:26      MisBP:0   MisRate:0.00%    MPKI:0.00
PC:115c4     Total:25881      MisBP:0   MisRate:0.00%    MPKI:0.00
PC:2caee     Total:26      MisBP:0   MisRate:0.00%    MPKI:0.00
PC:115c8     Total:25881      MisBP:0   MisRate:0.00%    MPKI:0.00
PC:2caf2     Total:26      MisBP:0   MisRate:0.00%    MPKI:0.00
PC:2cafa     Total:26      MisBP:0   MisRate:0.00%    MPKI:0.00
PC:115b8     Total:12386      MisBP:0   MisRate:0.00%    MPKI:0.00
PC:2cd36     Total:56      MisBP:0   MisRate:0.00%    MPKI:0.00
PC:2cd3a     Total:60      MisBP:0   MisRate:0.00%    MPKI:0.00
PC:2cd3e     Total:51      MisBP:0   MisRate:0.00%    MPKI:0.00
PC:2cd42     Total:51      MisBP:0   MisRate:0.00%    MPKI:0.00
PC:2cd46     Total:51      MisBP:0   MisRate:0.00%    MPKI:0.00
PC:22e52     Total:11      MisBP:0   MisRate:0.00%    MPKI:0.00
PC:2cd4a     Total:51      MisBP:0   MisRate:0.00%    MPKI:0.00
PC:22e56     Total:33      MisBP:0   MisRate:0.00%    MPKI:0.00
PC:2cdba     Total:1      MisBP:0   MisRate:0.00%    MPKI:0.00
PC:108f2     Total:155      MisBP:0   MisRate:0.00%    MPKI:0.00
PC:26ea0     Total:24      MisBP:0   MisRate:0.00%    MPKI:0.00
PC:2cdac     Total:37      MisBP:0   MisRate:0.00%    MPKI:0.00
PC:2bb42     Total:11      MisBP:0   MisRate:0.00%    MPKI:0.00
PC:2cdb0     Total:37      MisBP:0   MisRate:0.00%    MPKI:0.00
PC:15598     Total:146      MisBP:0   MisRate:0.00%    MPKI:0.00
PC:2bb46     Total:11      MisBP:0   MisRate:0.00%    MPKI:0.00
PC:2cdb4     Total:37      MisBP:0   MisRate:0.00%    MPKI:0.00
PC:2cdb8     Total:37      MisBP:0   MisRate:0.00%    MPKI:0.00
PC:2d712     Total:37      MisBP:0   MisRate:0.00%    MPKI:0.00
PC:2cdbe     Total:1      MisBP:0   MisRate:0.00%    MPKI:0.00
[...]
PC:153a8     Total:267      MisBP:0   MisRate:0.00%    MPKI:0.00
PC:2c3f0     Total:5      MisBP:0   MisRate:0.00%    MPKI:0.00
PC:10a00     Total:19      MisBP:0   MisRate:0.00%    MPKI:0.00
PC:153a4     Total:276      MisBP:0   MisRate:0.00%    MPKI:0.00
PC:2c3ec     Total:5      MisBP:0   MisRate:0.00%    MPKI:0.00
PC:2d660     Total:10      MisBP:0   MisRate:0.00%    MPKI:0.00
PC:153a2     Total:276      MisBP:0   MisRate:0.00%    MPKI:0.00
PC:2d654     Total:10      MisBP:0   MisRate:0.00%    MPKI:0.00
PC:153a0     Total:276      MisBP:0   MisRate:0.00%    MPKI:0.00
PC:2c3e8     Total:5      MisBP:0   MisRate:0.00%    MPKI:0.00
PC:1539c     Total:276      MisBP:0   MisRate:0.00%    MPKI:0.00
PC:2c3e4     Total:5      MisBP:0   MisRate:0.00%    MPKI:0.00
PC:1539a     Total:276      MisBP:0   MisRate:0.00%    MPKI:0.00
PC:2d64c     Total:10      MisBP:0   MisRate:0.00%    MPKI:0.00
PC:2d66a     Total:27      MisBP:0   MisRate:0.00%    MPKI:0.00
PC:2d80e     Total:1      MisBP:0   MisRate:0.00%    MPKI:0.00
PC:15558     Total:570      MisBP:0   MisRate:0.00%    MPKI:0.00
PC:2d80a     Total:1      MisBP:0   MisRate:0.00%    MPKI:0.00
PC:15554     Total:1155      MisBP:0   MisRate:0.00%    MPKI:0.00
PC:2d806     Total:1      MisBP:0   MisRate:0.00%    MPKI:0.00
PC:15552     Total:596      MisBP:0   MisRate:0.00%    MPKI:0.00
PC:153bc     Total:169      MisBP:0   MisRate:0.00%    MPKI:0.00
PC:153b8     Total:169      MisBP:0   MisRate:0.00%    MPKI:0.00
PC:15396     Total:2795      MisBP:0   MisRate:0.00%    MPKI:0.00
PC:153b6     Total:263      MisBP:0   MisRate:0.00%    MPKI:0.00
PC:2d668     Total:10      MisBP:0   MisRate:0.00%    MPKI:0.00
PC:153b4     Total:263      MisBP:0   MisRate:0.00%    MPKI:0.00
PC:2c3fc     Total:5      MisBP:0   MisRate:0.00%    MPKI:0.00
PC:153b2     Total:263      MisBP:0   MisRate:0.00%    MPKI:0.00
PC:2d664     Total:10      MisBP:0   MisRate:0.00%    MPKI:0.00
PC:153ae     Total:264      MisBP:0   MisRate:0.00%    MPKI:0.00
PC:2c3f6     Total:5      MisBP:0   MisRate:0.00%    MPKI:0.00
PC:2d3e0     Total:1      MisBP:0   MisRate:0.00%    MPKI:0.00
PC:2d3ea     Total:3      MisBP:0   MisRate:0.00%    MPKI:0.00
PC:15138     Total:5101042      MisBP:0   MisRate:0.00%    MPKI:0.00
PC:2d3e6     Total:3      MisBP:0   MisRate:0.00%    MPKI:0.00
PC:15134     Total:5101301      MisBP:0   MisRate:0.00%    MPKI:0.00
PC:156ae     Total:262      MisBP:0   MisRate:0.00%    MPKI:0.00
PC:2d3e4     Total:3      MisBP:0   MisRate:0.00%    MPKI:0.00
PC:15132     Total:5106490      MisBP:0   MisRate:0.00%    MPKI:0.00
PC:156ac     Total:262      MisBP:0   MisRate:0.00%    MPKI:0.00
PC:156b6     Total:199      MisBP:0   MisRate:0.00%    MPKI:0.00
PC:1512e     Total:12802116      MisBP:0   MisRate:0.00%    MPKI:0.00
PC:156a8     Total:262      MisBP:0   MisRate:0.00%    MPKI:0.00
PC:2d3de     Total:1      MisBP:0   MisRate:0.00%    MPKI:0.00
PC:156a6     Total:264      MisBP:0   MisRate:0.00%    MPKI:0.00
PC:2d3dc     Total:2      MisBP:0   MisRate:0.00%    MPKI:0.00
PC:1512a     Total:12804835      MisBP:0   MisRate:0.00%    MPKI:0.00
PC:156a4     Total:264      MisBP:0   MisRate:0.00%    MPKI:0.00
PC:2d3d8     Total:2      MisBP:0   MisRate:0.00%    MPKI:0.00
PC:2d3f6     Total:3      MisBP:0   MisRate:0.00%    MPKI:0.00
PC:2c3de     Total:5      MisBP:0   MisRate:0.00%    MPKI:0.00
PC:2d648     Total:10      MisBP:0   MisRate:0.00%    MPKI:0.00
PC:15394     Total:282      MisBP:0   MisRate:0.00%    MPKI:0.00
PC:156c8     Total:75      MisBP:0   MisRate:0.00%    MPKI:0.00
PC:156c6     Total:75      MisBP:0   MisRate:0.00%    MPKI:0.00
PC:2d3fa     Total:3      MisBP:0   MisRate:0.00%    MPKI:0.00
PC:15148     Total:323587      MisBP:0   MisRate:0.00%    MPKI:0.00
PC:156c2     Total:154      MisBP:0   MisRate:0.00%    MPKI:0.00
PC:14836     Total:370      MisBP:0   MisRate:0.00%    MPKI:0.00
PC:15144     Total:323592      MisBP:0   MisRate:0.00%    MPKI:0.00
PC:156be     Total:154      MisBP:0   MisRate:0.00%    MPKI:0.00
PC:156bc     Total:158      MisBP:0   MisRate:0.00%    MPKI:0.00
PC:2d3f2     Total:3      MisBP:0   MisRate:0.00%    MPKI:0.00
PC:156ba     Total:158      MisBP:0   MisRate:0.00%    MPKI:0.00
PC:2d3f0     Total:3      MisBP:0   MisRate:0.00%    MPKI:0.00
PC:1513e     Total:323621      MisBP:0   MisRate:0.00%    MPKI:0.00
PC:2d3ee     Total:3      MisBP:0   MisRate:0.00%    MPKI:0.00
PC:15368     Total:31892      MisBP:0   MisRate:0.00%    MPKI:0.00
PC:1522c     Total:3418981      MisBP:0   MisRate:0.00%    MPKI:0.00
PC:15152     Total:323521      MisBP:0   MisRate:0.00%    MPKI:0.00
PC:2d4de     Total:35      MisBP:0   MisRate:0.00%    MPKI:0.00
PC:330f6     Total:36      MisBP:0   MisRate:0.00%    MPKI:0.00
PC:1540e     Total:148      MisBP:0   MisRate:0.00%    MPKI:0.00
PC:2d934     Total:1      MisBP:0   MisRate:0.00%    MPKI:0.00
PC:2d732     Total:28      MisBP:0   MisRate:0.00%    MPKI:0.00
PC:15232     Total:3333787      MisBP:0   MisRate:0.00%    MPKI:0.00
PC:15150     Total:323522      MisBP:0   MisRate:0.00%    MPKI:0.00
PC:2d4e4     Total:35      MisBP:0   MisRate:0.00%    MPKI:0.00
PC:330fa     Total:35      MisBP:0   MisRate:0.00%    MPKI:0.00
PC:15412     Total:148      MisBP:0   MisRate:0.00%    MPKI:0.00
PC:2d4a8     Total:29      MisBP:0   MisRate:0.00%    MPKI:0.00
PC:2d4e8     Total:35      MisBP:0   MisRate:0.00%    MPKI:0.00
PC:2d616     Total:24      MisBP:0   MisRate:0.00%    MPKI:0.00
PC:15408     Total:324      MisBP:0   MisRate:0.00%    MPKI:0.00
PC:2e0d4     Total:1      MisBP:0   MisRate:0.00%    MPKI:0.00
PC:2d938     Total:1      MisBP:0   MisRate:0.00%    MPKI:0.00
PC:2d60c     Total:15      MisBP:0   MisRate:0.00%    MPKI:0.00
PC:109b2     Total:152      MisBP:0   MisRate:0.00%    MPKI:0.00
PC:2d930     Total:1      MisBP:0   MisRate:0.00%    MPKI:0.00
PC:1535a     Total:35563      MisBP:0   MisRate:0.00%    MPKI:0.00
PC:2e0c6     Total:20      MisBP:0   MisRate:0.00%    MPKI:0.00
PC:2d610     Total:15      MisBP:0   MisRate:0.00%    MPKI:0.00
PC:1535e     Total:35551      MisBP:0   MisRate:0.00%    MPKI:0.00
PC:2e0ca     Total:20      MisBP:0   MisRate:0.00%    MPKI:0.00
PC:1532e     Total:34741      MisBP:0   MisRate:0.00%    MPKI:0.00
PC:2e0ba     Total:20      MisBP:0   MisRate:0.00%    MPKI:0.00
PC:1565e     Total:108      MisBP:0   MisRate:0.00%    MPKI:0.00
PC:2d910     Total:1      MisBP:0   MisRate:0.00%    MPKI:0.00
PC:1487e     Total:318      MisBP:0   MisRate:0.00%    MPKI:0.00
PC:1097c     Total:128      MisBP:0   MisRate:0.00%    MPKI:0.00
PC:2d4ae     Total:21      MisBP:0   MisRate:0.00%    MPKI:0.00
PC:15324     Total:73      MisBP:0   MisRate:0.00%    MPKI:0.00
PC:150e4     Total:13964266      MisBP:0   MisRate:0.00%    MPKI:0.00
PC:15486     Total:55      MisBP:0   MisRate:0.00%    MPKI:0.00
PC:2d5dc     Total:1      MisBP:0   MisRate:0.00%    MPKI:0.00
PC:2d738     Total:28      MisBP:0   MisRate:0.00%    MPKI:0.00
PC:14870     Total:346      MisBP:0   MisRate:0.00%    MPKI:0.00
PC:15328     Total:73      MisBP:0   MisRate:0.00%    MPKI:0.00
PC:10980     Total:135      MisBP:0   MisRate:0.00%    MPKI:0.00
PC:1515a     Total:12559222      MisBP:0   MisRate:0.00%    MPKI:0.00
PC:2d4b6     Total:21      MisBP:0   MisRate:0.00%    MPKI:0.00
PC:2d612     Total:15      MisBP:0   MisRate:0.00%    MPKI:0.00
PC:2cb30     Total:12      MisBP:0   MisRate:0.00%    MPKI:0.00
PC:2d61a     Total:19      MisBP:0   MisRate:0.00%    MPKI:0.00
PC:2d734     Total:28      MisBP:0   MisRate:0.00%    MPKI:0.00
PC:2d5ea     Total:26      MisBP:0   MisRate:0.00%    MPKI:0.00
PC:150f2     Total:13946347      MisBP:0   MisRate:0.00%    MPKI:0.00
PC:156cc     Total:182      MisBP:0   MisRate:0.00%    MPKI:0.00
PC:156ce     Total:182      MisBP:0   MisRate:0.00%    MPKI:0.00
PC:15482     Total:55      MisBP:0   MisRate:0.00%    MPKI:0.00
PC:330e8     Total:237      MisBP:0   MisRate:0.00%    MPKI:0.00
PC:15400     Total:324      MisBP:0   MisRate:0.00%    MPKI:0.00
PC:15224     Total:3422100      MisBP:0   MisRate:0.00%    MPKI:0.00
PC:2d4d6     Total:10      MisBP:0   MisRate:0.00%    MPKI:0.00
PC:2d602     Total:18      MisBP:0   MisRate:0.00%    MPKI:0.00
PC:2d606     Total:18      MisBP:0   MisRate:0.00%    MPKI:0.00
PC:2e0c0     Total:20      MisBP:0   MisRate:0.00%    MPKI:0.00
PC:330f0     Total:76      MisBP:0   MisRate:0.00%    MPKI:0.00
PC:156ec     Total:122      MisBP:0   MisRate:0.00%    MPKI:0.00
PC:108ea     Total:155      MisBP:0   MisRate:0.00%    MPKI:0.00
PC:156e4     Total:119      MisBP:0   MisRate:0.00%    MPKI:0.00
PC:2d99a     Total:13      MisBP:0   MisRate:0.00%    MPKI:0.00
PC:156e8     Total:122      MisBP:0   MisRate:0.00%    MPKI:0.00
PC:1514c     Total:323575      MisBP:0   MisRate:0.00%    MPKI:0.00
PC:150c8     Total:56897      MisBP:0   MisRate:0.00%    MPKI:0.00
PC:150ca     Total:56852      MisBP:0   MisRate:0.00%    MPKI:0.00
PC:2efa6     Total:69      MisBP:0   MisRate:0.00%    MPKI:0.00
PC:14820     Total:379      MisBP:0   MisRate:0.00%    MPKI:0.00
PC:14858     Total:355      MisBP:0   MisRate:0.00%    MPKI:0.00
PC:2d72a     Total:28      MisBP:0   MisRate:0.00%    MPKI:0.00
PC:2d5c4     Total:27      MisBP:0   MisRate:0.00%    MPKI:0.00
PC:2d99e     Total:13      MisBP:0   MisRate:0.00%    MPKI:0.00
PC:1484a     Total:362      MisBP:0   MisRate:0.00%    MPKI:0.00
PC:15172     Total:5966402      MisBP:0   MisRate:0.00%    MPKI:0.00
PC:2d424     Total:76      MisBP:0   MisRate:0.00%    MPKI:0.00
PC:150cc     Total:56703      MisBP:0   MisRate:0.00%    MPKI:0.00
PC:15478     Total:362      MisBP:0   MisRate:0.00%    MPKI:0.00
PC:2cb0e     Total:22      MisBP:0   MisRate:0.00%    MPKI:0.00
PC:2d928     Total:1      MisBP:0   MisRate:0.00%    MPKI:0.00
PC:1485c     Total:355      MisBP:0   MisRate:0.00%    MPKI:0.00
PC:2d9a2     Total:13      MisBP:0   MisRate:0.00%    MPKI:0.00
PC:156f0     Total:122      MisBP:0   MisRate:0.00%    MPKI:0.00
PC:15676     Total:108      MisBP:0   MisRate:0.00%    MPKI:0.00
PC:2d49a     Total:5      MisBP:0   MisRate:0.00%    MPKI:0.00
PC:2d428     Total:530      MisBP:0   MisRate:0.00%    MPKI:0.00
PC:150d4     Total:48754      MisBP:0   MisRate:0.00%    MPKI:0.00
PC:150c2     Total:56909      MisBP:0   MisRate:0.00%    MPKI:0.00
PC:1534e     Total:63305      MisBP:0   MisRate:0.00%    MPKI:0.00
PC:2d72e     Total:28      MisBP:0   MisRate:0.00%    MPKI:0.00
PC:1547c     Total:63      MisBP:0   MisRate:0.00%    MPKI:0.00
PC:150be     Total:588728      MisBP:0   MisRate:0.00%    MPKI:0.00
PC:15292     Total:5142568      MisBP:0   MisRate:0.00%    MPKI:0.00
PC:1484e     Total:362      MisBP:0   MisRate:0.00%    MPKI:0.00
PC:2d47e     Total:16      MisBP:1   MisRate:6.25%    MPKI:0.00
PC:2d77c     Total:15      MisBP:1   MisRate:6.67%    MPKI:0.00
PC:11d74     Total:97      MisBP:1   MisRate:1.03%    MPKI:0.00
PC:2cf4a     Total:60      MisBP:1   MisRate:1.67%    MPKI:0.00
PC:2d784     Total:11      MisBP:1   MisRate:9.09%    MPKI:0.00
PC:155c4     Total:9      MisBP:1   MisRate:11.11%    MPKI:0.00
PC:2d8e8     Total:12      MisBP:1   MisRate:8.33%    MPKI:0.00
PC:2d7c4     Total:167      MisBP:1   MisRate:0.60%    MPKI:0.00
PC:26e90     Total:12      MisBP:1   MisRate:8.33%    MPKI:0.00
PC:1098e     Total:4      MisBP:1   MisRate:25.00%    MPKI:0.00
PC:1548a     Total:54      MisBP:2   MisRate:3.70%    MPKI:0.00
PC:2d66e     Total:26      MisBP:2   MisRate:7.69%    MPKI:0.00
PC:155bc     Total:8      MisBP:2   MisRate:25.00%    MPKI:0.00
PC:2d9a8     Total:13      MisBP:2   MisRate:15.38%    MPKI:0.00
PC:11d84     Total:2430      MisBP:2   MisRate:0.08%    MPKI:0.00
PC:155ec     Total:12      MisBP:2   MisRate:16.67%    MPKI:0.00
PC:2d3c6     Total:28      MisBP:2   MisRate:7.14%    MPKI:0.00
PC:15602     Total:9      MisBP:2   MisRate:22.22%    MPKI:0.00
PC:2c8ba     Total:147      MisBP:2   MisRate:1.36%    MPKI:0.00
PC:30e94     Total:17      MisBP:2   MisRate:11.76%    MPKI:0.00
PC:2c9e8     Total:57      MisBP:2   MisRate:3.51%    MPKI:0.00
PC:2cabc     Total:27      MisBP:3   MisRate:11.11%    MPKI:0.00
PC:10932     Total:122      MisBP:3   MisRate:2.46%    MPKI:0.00
PC:152b6     Total:434082      MisBP:3   MisRate:0.00%    MPKI:0.00
PC:2d5be     Total:52      MisBP:3   MisRate:5.77%    MPKI:0.00
PC:26e52     Total:20      MisBP:3   MisRate:15.00%    MPKI:0.00
PC:1536e     Total:5194      MisBP:3   MisRate:0.06%    MPKI:0.00
PC:2cdd4     Total:6      MisBP:3   MisRate:50.00%    MPKI:0.00
PC:2d8e2     Total:13      MisBP:3   MisRate:23.08%    MPKI:0.00
PC:2cd54     Total:51      MisBP:4   MisRate:7.84%    MPKI:0.00
PC:2da5c     Total:7      MisBP:4   MisRate:57.14%    MPKI:0.00
PC:15528     Total:295      MisBP:4   MisRate:1.36%    MPKI:0.00
PC:2d9f8     Total:28      MisBP:4   MisRate:14.29%    MPKI:0.00
PC:2d7d0     Total:24      MisBP:4   MisRate:16.67%    MPKI:0.00
PC:2d492     Total:79      MisBP:4   MisRate:5.06%    MPKI:0.00
PC:154f4     Total:59      MisBP:4   MisRate:6.78%    MPKI:0.00
PC:2d44e     Total:20      MisBP:4   MisRate:20.00%    MPKI:0.00
PC:2d57e     Total:149      MisBP:5   MisRate:3.36%    MPKI:0.00
PC:2d710     Total:37      MisBP:5   MisRate:13.51%    MPKI:0.00
PC:2d724     Total:32      MisBP:5   MisRate:15.62%    MPKI:0.00
PC:2d60a     Total:18      MisBP:5   MisRate:27.78%    MPKI:0.00
PC:2d596     Total:61      MisBP:5   MisRate:8.20%    MPKI:0.00
PC:2ca6c     Total:17      MisBP:5   MisRate:29.41%    MPKI:0.00
PC:1541a     Total:145      MisBP:5   MisRate:3.45%    MPKI:0.00
PC:10984     Total:135      MisBP:5   MisRate:3.70%    MPKI:0.00
PC:30e40     Total:27      MisBP:5   MisRate:18.52%    MPKI:0.00
PC:2d9ee     Total:214      MisBP:6   MisRate:2.80%    MPKI:0.00
PC:2d766     Total:71      MisBP:6   MisRate:8.45%    MPKI:0.00
PC:2f44a     Total:518      MisBP:6   MisRate:1.16%    MPKI:0.00
PC:2d9e2     Total:26      MisBP:7   MisRate:26.92%    MPKI:0.00
PC:2d71e     Total:37      MisBP:7   MisRate:18.92%    MPKI:0.00
PC:2d8f8     Total:20      MisBP:7   MisRate:35.00%    MPKI:0.00
PC:2d758     Total:44      MisBP:7   MisRate:15.91%    MPKI:0.00
PC:2da3e     Total:39      MisBP:8   MisRate:20.51%    MPKI:0.00
PC:26e46     Total:9      MisBP:9   MisRate:100.00%    MPKI:0.00
PC:2d4c4     Total:26      MisBP:9   MisRate:34.62%    MPKI:0.00
PC:2da2e     Total:31      MisBP:10   MisRate:32.26%    MPKI:0.00
PC:15452     Total:81      MisBP:10   MisRate:12.35%    MPKI:0.00
PC:2d618     Total:24      MisBP:11   MisRate:45.83%    MPKI:0.00
PC:2ca44     Total:44      MisBP:11   MisRate:25.00%    MPKI:0.00
PC:2d76c     Total:90      MisBP:12   MisRate:13.33%    MPKI:0.00
PC:2d4ac     Total:29      MisBP:12   MisRate:41.38%    MPKI:0.00
PC:2c9ba     Total:96      MisBP:13   MisRate:13.54%    MPKI:0.00
PC:2d7ca     Total:196      MisBP:13   MisRate:6.63%    MPKI:0.00
PC:2d628     Total:302      MisBP:14   MisRate:4.64%    MPKI:0.00
PC:15588     Total:117      MisBP:16   MisRate:13.68%    MPKI:0.00
PC:2d58e     Total:143      MisBP:17   MisRate:11.89%    MPKI:0.00
PC:155a2     Total:114      MisBP:21   MisRate:18.42%    MPKI:0.00
PC:2caa2     Total:63      MisBP:25   MisRate:39.68%    MPKI:0.00
PC:109c8     Total:126      MisBP:25   MisRate:19.84%    MPKI:0.00
PC:2c998     Total:111      MisBP:26   MisRate:23.42%    MPKI:0.00
PC:15550     Total:334      MisBP:27   MisRate:8.08%    MPKI:0.00
PC:15570     Total:543      MisBP:28   MisRate:5.16%    MPKI:0.00
PC:15580     Total:280      MisBP:29   MisRate:10.36%    MPKI:0.00
PC:1547a     Total:362      MisBP:30   MisRate:8.29%    MPKI:0.00
PC:2d560     Total:181      MisBP:30   MisRate:16.57%    MPKI:0.00
PC:153e4     Total:259      MisBP:33   MisRate:12.74%    MPKI:0.00
PC:156b8     Total:199      MisBP:34   MisRate:17.09%    MPKI:0.00
PC:10f62     Total:353      MisBP:36   MisRate:10.20%    MPKI:0.00
PC:1099a     Total:301      MisBP:36   MisRate:11.96%    MPKI:0.00
PC:156b4     Total:235      MisBP:36   MisRate:15.32%    MPKI:0.00
PC:154e4     Total:380      MisBP:39   MisRate:10.26%    MPKI:0.00
PC:156b2     Total:262      MisBP:44   MisRate:16.79%    MPKI:0.00
PC:15518     Total:381      MisBP:46   MisRate:12.07%    MPKI:0.00
PC:15442     Total:326      MisBP:53   MisRate:16.26%    MPKI:0.00
PC:1540a     Total:324      MisBP:53   MisRate:16.36%    MPKI:0.00
PC:11dd0     Total:880      MisBP:57   MisRate:6.48%    MPKI:0.00
PC:11702     Total:7213      MisBP:58   MisRate:0.80%    MPKI:0.00
PC:153d4     Total:404      MisBP:59   MisRate:14.60%    MPKI:0.00
PC:15642     Total:224      MisBP:64   MisRate:28.57%    MPKI:0.00
PC:116d6     Total:10816      MisBP:65   MisRate:0.60%    MPKI:0.00
PC:1164a     Total:18327      MisBP:67   MisRate:0.37%    MPKI:0.00
PC:154b4     Total:339      MisBP:76   MisRate:22.42%    MPKI:0.00
PC:1159c     Total:6007      MisBP:89   MisRate:1.48%    MPKI:0.00
PC:15354     Total:62663      MisBP:94   MisRate:0.15%    MPKI:0.00
PC:116b4     Total:13637      MisBP:111   MisRate:0.81%    MPKI:0.00
PC:1170e     Total:7072      MisBP:134   MisRate:1.89%    MPKI:0.00
PC:115b4     Total:5780      MisBP:142   MisRate:2.46%    MPKI:0.00
PC:116ec     Total:10534      MisBP:151   MisRate:1.43%    MPKI:0.00
PC:15352     Total:63296      MisBP:183   MisRate:0.29%    MPKI:0.00
PC:11762     Total:13831      MisBP:188   MisRate:1.36%    MPKI:0.00
PC:1171a     Total:5939      MisBP:199   MisRate:3.35%    MPKI:0.00
PC:15156     Total:323520      MisBP:205   MisRate:0.06%    MPKI:0.00
PC:11592     Total:17109      MisBP:248   MisRate:1.45%    MPKI:0.00
PC:115ac     Total:15103      MisBP:270   MisRate:1.79%    MPKI:0.00
PC:1173a     Total:10989      MisBP:333   MisRate:3.03%    MPKI:0.00
PC:15190     Total:1629243      MisBP:354   MisRate:0.02%    MPKI:0.00
PC:151c8     Total:728796      MisBP:590   MisRate:0.08%    MPKI:0.00
PC:11618     Total:15244      MisBP:799   MisRate:5.24%    MPKI:0.00
PC:15122     Total:310337      MisBP:806   MisRate:0.26%    MPKI:0.00
PC:15298     Total:5139399      MisBP:1308   MisRate:0.03%    MPKI:0.00
PC:15264     Total:627371      MisBP:1740   MisRate:0.28%    MPKI:0.01
PC:15236     Total:3329218      MisBP:1849   MisRate:0.06%    MPKI:0.01
PC:11684     Total:13374      MisBP:1988   MisRate:14.86%    MPKI:0.01
PC:151fe     Total:786028      MisBP:2652   MisRate:0.34%    MPKI:0.01
PC:1160a     Total:17784      MisBP:2806   MisRate:15.78%    MPKI:0.01
PC:11632     Total:19531      MisBP:3754   MisRate:19.22%    MPKI:0.01
PC:115ec     Total:25333      MisBP:6281   MisRate:24.79%    MPKI:0.02
PC:15358     Total:59600      MisBP:14353   MisRate:24.08%    MPKI:0.05
PC:152ae     Total:15728214      MisBP:63876   MisRate:0.41%    MPKI:0.21
PC:1524a     Total:5369929      MisBP:549551   MisRate:10.23%    MPKI:1.77
PC:1513c     Total:5099947      MisBP:584457   MisRate:11.46%    MPKI:1.89
PC:15108     Total:4533948      MisBP:686288   MisRate:15.14%    MPKI:2.21
PC:151ae     Total:5175942      MisBP:690633   MisRate:13.34%    MPKI:2.23
PC:151e4     Total:4919027      MisBP:783971   MisRate:15.94%    MPKI:2.53
PC:1521c     Total:7670867      MisBP:1028584   MisRate:13.41%    MPKI:3.32
PC:15176     Total:5964173      MisBP:1282658   MisRate:21.51%    MPKI:4.14
PC:1527e     Total:9837979      MisBP:1304692   MisRate:13.26%    MPKI:4.21
PC:150fc     Total:13136390      MisBP:1349874   MisRate:10.28%    MPKI:4.35
PC:151dc     Total:12614769      MisBP:1473203   MisRate:11.68%    MPKI:4.75
PC:15214     Total:13243475      MisBP:1592204   MisRate:12.02%    MPKI:5.14
PC:151a6     Total:12604536      MisBP:1646603   MisRate:13.06%    MPKI:5.31
PC:15276     Total:15690941      MisBP:1657277   MisRate:10.56%    MPKI:5.35
PC:1516a     Total:12546672      MisBP:1705233   MisRate:13.59%    MPKI:5.50
PC:15130     Total:12799724      MisBP:1747279   MisRate:13.65%    MPKI:5.64
PC:15242     Total:14164628      MisBP:2274275   MisRate:16.06%    MPKI:7.34
Totfetch:1073548520  TotInsts:310000005  TotMis : inf%   MPKI : 66.01
=============finish sim!!!!!!=============
Done running SimPoint!
