Global frequency set at 1000000000000 ticks per second
 Register [printBranch()] ExitCallback !!!!!!! 
gem5 Simulator System.  https://www.gem5.org
gem5 is copyrighted software; use the --copyright option for details.

gem5 version 22.0.0.2
gem5 compiled Sep  7 2022 00:42:18
gem5 started Sep  7 2022 04:00:06
gem5 executing on a100, pid 2774221
command line: /data/zxf/gem5/gem5-prof/build/ARM/gem5.fast --outdir=/data/zxf/checkpoint/spec2006/401.bzip2/prof/bzip2_ckp_8 /data/zxf/gem5/gem5-prof/configs/example/se.py --cpu-type O3CPU --cpu-clock 1GHz --num-cpu 1 --l1d-hwp-type=BOPPrefetcher --caches --l2cache --l1i_size 32kB --l1d_size 32kB --l2_size 1MB --l1i_assoc 8 --l1d_assoc 8 --l2_assoc 16 --cacheline_size 64 --mem-type DDR3_2133_8x8 --mem-size 16GB --restore-simpoint-checkpoint -r 8 --checkpoint-dir /data/zxf/checkpoint/spec2006/401.bzip2/ckpt -c bzip2_base.gcc41-64bit -o 'input.source 280'

info: Standard input is not a terminal, disabling listeners.
Resuming from /data/zxf/checkpoint/spec2006/401.bzip2/ckpt/cpt.simpoint_07_inst_135590000000_weight_0.056328_interval_300000000_warmup_10000000
Resuming from SimPoint #7, start_inst:135590000000, weight:0.056328, interval:300000000, warmup:10000000
Switch at curTick count:10000
Switched CPUS @ tick 83696750312000
[(<m5.objects.ArmCPU.ArmAtomicSimpleCPU object at 0x7f4dbe4b0bb0>, <m5.objects.ArmCPU.ArmO3CPU object at 0x7f4dbe4c8e20>)]
switching cpus



+++++++++++++++++++++++++zxf print simpoint+++++++++++++++++++++++++++
Warmed up! Dumping and resetting stats!


=============start sim!!!!!!=============
PC:179d2     Total:11      MisBP:0   MisRate:0.00%    MPKI:0.00
PC:29684     Total:573      MisBP:0   MisRate:0.00%    MPKI:0.00
PC:10168     Total:115      MisBP:0   MisRate:0.00%    MPKI:0.00
PC:16fe4     Total:9      MisBP:0   MisRate:0.00%    MPKI:0.00
PC:297a4     Total:166      MisBP:0   MisRate:0.00%    MPKI:0.00
PC:297a8     Total:166      MisBP:0   MisRate:0.00%    MPKI:0.00
PC:17108     Total:8      MisBP:0   MisRate:0.00%    MPKI:0.00
PC:297ac     Total:332      MisBP:0   MisRate:0.00%    MPKI:0.00
PC:1710c     Total:8      MisBP:0   MisRate:0.00%    MPKI:0.00
PC:297b0     Total:332      MisBP:0   MisRate:0.00%    MPKI:0.00
PC:297b4     Total:165      MisBP:0   MisRate:0.00%    MPKI:0.00
PC:17114     Total:8      MisBP:0   MisRate:0.00%    MPKI:0.00
PC:111d4     Total:671      MisBP:0   MisRate:0.00%    MPKI:0.00
PC:16de6     Total:3007      MisBP:0   MisRate:0.00%    MPKI:0.00
PC:13bf4     Total:3107187      MisBP:0   MisRate:0.00%    MPKI:0.00
PC:179d4     Total:11      MisBP:0   MisRate:0.00%    MPKI:0.00
PC:179d6     Total:11      MisBP:0   MisRate:0.00%    MPKI:0.00
PC:361b0     Total:252      MisBP:0   MisRate:0.00%    MPKI:0.00
PC:184c8     Total:490758      MisBP:0   MisRate:0.00%    MPKI:0.00
PC:1354c     Total:9      MisBP:0   MisRate:0.00%    MPKI:0.00
PC:184cc     Total:490553      MisBP:0   MisRate:0.00%    MPKI:0.00
PC:13550     Total:9      MisBP:0   MisRate:0.00%    MPKI:0.00
PC:184d8     Total:480897      MisBP:0   MisRate:0.00%    MPKI:0.00
PC:1355c     Total:845      MisBP:0   MisRate:0.00%    MPKI:0.00
PC:10f72     Total:1760      MisBP:0   MisRate:0.00%    MPKI:0.00
PC:361c8     Total:251      MisBP:0   MisRate:0.00%    MPKI:0.00
PC:184e0     Total:480293      MisBP:0   MisRate:0.00%    MPKI:0.00
PC:13564     Total:845      MisBP:0   MisRate:0.00%    MPKI:0.00
PC:11054     Total:237      MisBP:0   MisRate:0.00%    MPKI:0.00
PC:13806     Total:1      MisBP:0   MisRate:0.00%    MPKI:0.00
PC:11048     Total:1047      MisBP:0   MisRate:0.00%    MPKI:0.00
PC:1796e     Total:20      MisBP:0   MisRate:0.00%    MPKI:0.00
PC:29758     Total:553      MisBP:0   MisRate:0.00%    MPKI:0.00
PC:1380c     Total:1      MisBP:0   MisRate:0.00%    MPKI:0.00
PC:18788     Total:171880      MisBP:0   MisRate:0.00%    MPKI:0.00
PC:17972     Total:20      MisBP:0   MisRate:0.00%    MPKI:0.00
PC:2975c     Total:553      MisBP:0   MisRate:0.00%    MPKI:0.00
PC:1380e     Total:1      MisBP:0   MisRate:0.00%    MPKI:0.00
PC:11050     Total:237      MisBP:0   MisRate:0.00%    MPKI:0.00
PC:1878a     Total:171880      MisBP:0   MisRate:0.00%    MPKI:0.00
PC:29760     Total:553      MisBP:0   MisRate:0.00%    MPKI:0.00
PC:13812     Total:1      MisBP:0   MisRate:0.00%    MPKI:0.00
PC:184e8     Total:4171345      MisBP:0   MisRate:0.00%    MPKI:0.00
PC:1878e     Total:171880      MisBP:0   MisRate:0.00%    MPKI:0.00
PC:12b7e     Total:7      MisBP:0   MisRate:0.00%    MPKI:0.00
PC:187ae     Total:86      MisBP:0   MisRate:0.00%    MPKI:0.00
PC:29780     Total:553      MisBP:0   MisRate:0.00%    MPKI:0.00
PC:170e0     Total:1      MisBP:0   MisRate:0.00%    MPKI:0.00
PC:187b2     Total:8      MisBP:0   MisRate:0.00%    MPKI:0.00
PC:29784     Total:553      MisBP:0   MisRate:0.00%    MPKI:0.00
PC:170e4     Total:1      MisBP:0   MisRate:0.00%    MPKI:0.00
PC:111a8     Total:1047      MisBP:0   MisRate:0.00%    MPKI:0.00
PC:145fc     Total:558      MisBP:0   MisRate:0.00%    MPKI:0.00
PC:16dba     Total:394      MisBP:0   MisRate:0.00%    MPKI:0.00
PC:29680     Total:573      MisBP:0   MisRate:0.00%    MPKI:0.00
PC:16fe0     Total:9      MisBP:0   MisRate:0.00%    MPKI:0.00
PC:29400     Total:699      MisBP:0   MisRate:0.00%    MPKI:0.00
PC:169b4     Total:213      MisBP:0   MisRate:0.00%    MPKI:0.00
PC:3621c     Total:7      MisBP:0   MisRate:0.00%    MPKI:0.00
PC:18534     Total:1      MisBP:0   MisRate:0.00%    MPKI:0.00
PC:135b8     Total:773270      MisBP:0   MisRate:0.00%    MPKI:0.00
PC:29360     Total:274      MisBP:0   MisRate:0.00%    MPKI:0.00
PC:293cc     Total:667      MisBP:0   MisRate:0.00%    MPKI:0.00
PC:16d2c     Total:70      MisBP:0   MisRate:0.00%    MPKI:0.00
PC:16d30     Total:70      MisBP:0   MisRate:0.00%    MPKI:0.00
PC:293d4     Total:59      MisBP:0   MisRate:0.00%    MPKI:0.00
PC:16d34     Total:74      MisBP:0   MisRate:0.00%    MPKI:0.00
PC:293d8     Total:59      MisBP:0   MisRate:0.00%    MPKI:0.00
PC:293ec     Total:118      MisBP:0   MisRate:0.00%    MPKI:0.00
PC:293f4     Total:118      MisBP:0   MisRate:0.00%    MPKI:0.00
PC:169b0     Total:213      MisBP:0   MisRate:0.00%    MPKI:0.00
PC:29424     Total:2307      MisBP:0   MisRate:0.00%    MPKI:0.00
PC:16d84     Total:4036      MisBP:0   MisRate:0.00%    MPKI:0.00
PC:29428     Total:2303      MisBP:0   MisRate:0.00%    MPKI:0.00
PC:16d88     Total:4040      MisBP:0   MisRate:0.00%    MPKI:0.00
PC:29434     Total:2302      MisBP:0   MisRate:0.00%    MPKI:0.00
PC:16d94     Total:420      MisBP:0   MisRate:0.00%    MPKI:0.00
PC:29530     Total:7866      MisBP:0   MisRate:0.00%    MPKI:0.00
PC:2953c     Total:7866      MisBP:0   MisRate:0.00%    MPKI:0.00
PC:29554     Total:7858      MisBP:0   MisRate:0.00%    MPKI:0.00
PC:29564     Total:7852      MisBP:0   MisRate:0.00%    MPKI:0.00
PC:14706     Total:147      MisBP:0   MisRate:0.00%    MPKI:0.00
PC:16ec4     Total:4721      MisBP:0   MisRate:0.00%    MPKI:0.00
PC:29568     Total:7852      MisBP:0   MisRate:0.00%    MPKI:0.00
PC:13580     Total:703      MisBP:0   MisRate:0.00%    MPKI:0.00
PC:1356c     Total:783      MisBP:0   MisRate:0.00%    MPKI:0.00
PC:146c0     Total:305      MisBP:0   MisRate:0.00%    MPKI:0.00
PC:10f82     Total:1431      MisBP:0   MisRate:0.00%    MPKI:0.00
PC:146c4     Total:304      MisBP:0   MisRate:0.00%    MPKI:0.00
PC:10f86     Total:1427      MisBP:0   MisRate:0.00%    MPKI:0.00
PC:361d8     Total:180      MisBP:0   MisRate:0.00%    MPKI:0.00
PC:13574     Total:783      MisBP:0   MisRate:0.00%    MPKI:0.00
PC:184f4     Total:3886792      MisBP:0   MisRate:0.00%    MPKI:0.00
PC:13578     Total:783      MisBP:0   MisRate:0.00%    MPKI:0.00
PC:146cc     Total:155      MisBP:0   MisRate:0.00%    MPKI:0.00
PC:10f8e     Total:1423      MisBP:0   MisRate:0.00%    MPKI:0.00
PC:361e4     Total:180      MisBP:0   MisRate:0.00%    MPKI:0.00
PC:184fc     Total:12445      MisBP:0   MisRate:0.00%    MPKI:0.00
PC:29754     Total:553      MisBP:0   MisRate:0.00%    MPKI:0.00
PC:361e8     Total:180      MisBP:0   MisRate:0.00%    MPKI:0.00
PC:13584     Total:703      MisBP:0   MisRate:0.00%    MPKI:0.00
PC:13588     Total:703      MisBP:0   MisRate:0.00%    MPKI:0.00
PC:16998     Total:2288      MisBP:0   MisRate:0.00%    MPKI:0.00
PC:1699c     Total:224      MisBP:0   MisRate:0.00%    MPKI:0.00
PC:10fb6     Total:1177      MisBP:0   MisRate:0.00%    MPKI:0.00
PC:169a0     Total:224      MisBP:0   MisRate:0.00%    MPKI:0.00
PC:17c0a     Total:22715      MisBP:0   MisRate:0.00%    MPKI:0.00
PC:135a4     Total:166061      MisBP:0   MisRate:0.00%    MPKI:0.00
PC:169a8     Total:224      MisBP:0   MisRate:0.00%    MPKI:0.00
PC:29244     Total:18      MisBP:0   MisRate:0.00%    MPKI:0.00
PC:17c12     Total:22710      MisBP:0   MisRate:0.00%    MPKI:0.00
PC:169ac     Total:213      MisBP:0   MisRate:0.00%    MPKI:0.00
PC:17bfe     Total:25348      MisBP:0   MisRate:0.00%    MPKI:0.00
PC:16ef4     Total:49      MisBP:0   MisRate:0.00%    MPKI:0.00
PC:16aa4     Total:14      MisBP:0   MisRate:0.00%    MPKI:0.00
PC:17bfa     Total:25061      MisBP:0   MisRate:0.00%    MPKI:0.00
PC:16aa6     Total:14      MisBP:0   MisRate:0.00%    MPKI:0.00
PC:18f7a     Total:749      MisBP:0   MisRate:0.00%    MPKI:0.00
PC:13f54     Total:761      MisBP:0   MisRate:0.00%    MPKI:0.00
PC:16aa8     Total:14      MisBP:0   MisRate:0.00%    MPKI:0.00
PC:10eee     Total:185      MisBP:0   MisRate:0.00%    MPKI:0.00
PC:136ac     Total:11      MisBP:0   MisRate:0.00%    MPKI:0.00
PC:111d8     Total:671      MisBP:0   MisRate:0.00%    MPKI:0.00
PC:16dea     Total:14261      MisBP:0   MisRate:0.00%    MPKI:0.00
PC:18ed2     Total:543      MisBP:0   MisRate:0.00%    MPKI:0.00
PC:13f56     Total:761      MisBP:0   MisRate:0.00%    MPKI:0.00
PC:14736     Total:1      MisBP:0   MisRate:0.00%    MPKI:0.00
PC:16aaa     Total:14      MisBP:0   MisRate:0.00%    MPKI:0.00
PC:18f7e     Total:312      MisBP:0   MisRate:0.00%    MPKI:0.00
PC:16aac     Total:14      MisBP:0   MisRate:0.00%    MPKI:0.00
PC:10ef2     Total:185      MisBP:0   MisRate:0.00%    MPKI:0.00
PC:136b0     Total:11      MisBP:0   MisRate:0.00%    MPKI:0.00
PC:111dc     Total:670      MisBP:0   MisRate:0.00%    MPKI:0.00
PC:16dee     Total:14249      MisBP:0   MisRate:0.00%    MPKI:0.00
PC:13f5a     Total:758      MisBP:0   MisRate:0.00%    MPKI:0.00
PC:16ab0     Total:14      MisBP:0   MisRate:0.00%    MPKI:0.00
PC:145dc     Total:5648      MisBP:0   MisRate:0.00%    MPKI:0.00
PC:10ef6     Total:185      MisBP:0   MisRate:0.00%    MPKI:0.00
PC:18630     Total:275383      MisBP:0   MisRate:0.00%    MPKI:0.00
PC:136b4     Total:11      MisBP:0   MisRate:0.00%    MPKI:0.00
PC:29590     Total:7849      MisBP:0   MisRate:0.00%    MPKI:0.00
PC:17bd8     Total:28422      MisBP:0   MisRate:0.00%    MPKI:0.00
PC:18eae     Total:506      MisBP:0   MisRate:0.00%    MPKI:0.00
PC:13f32     Total:1      MisBP:0   MisRate:0.00%    MPKI:0.00
PC:186e4     Total:1553      MisBP:0   MisRate:0.00%    MPKI:0.00
PC:10faa     Total:1190      MisBP:0   MisRate:0.00%    MPKI:0.00
PC:146e8     Total:1708      MisBP:0   MisRate:0.00%    MPKI:0.00
PC:2958c     Total:7849      MisBP:0   MisRate:0.00%    MPKI:0.00
PC:1472e     Total:16      MisBP:0   MisRate:0.00%    MPKI:0.00
PC:16eec     Total:73      MisBP:0   MisRate:0.00%    MPKI:0.00
PC:18eb2     Total:506      MisBP:0   MisRate:0.00%    MPKI:0.00
PC:13f36     Total:1      MisBP:0   MisRate:0.00%    MPKI:0.00
PC:186e8     Total:1552      MisBP:0   MisRate:0.00%    MPKI:0.00
PC:10fae     Total:1186      MisBP:0   MisRate:0.00%    MPKI:0.00
PC:111e0     Total:103      MisBP:0   MisRate:0.00%    MPKI:0.00
PC:14732     Total:2      MisBP:0   MisRate:0.00%    MPKI:0.00
PC:16ef0     Total:49      MisBP:0   MisRate:0.00%    MPKI:0.00
PC:17be0     Total:27074      MisBP:0   MisRate:0.00%    MPKI:0.00
PC:16a8c     Total:125      MisBP:0   MisRate:0.00%    MPKI:0.00
PC:18f60     Total:97      MisBP:0   MisRate:0.00%    MPKI:0.00
PC:10ed2     Total:91      MisBP:0   MisRate:0.00%    MPKI:0.00
PC:1860c     Total:199512      MisBP:0   MisRate:0.00%    MPKI:0.00
PC:13690     Total:16      MisBP:0   MisRate:0.00%    MPKI:0.00
PC:111bc     Total:1011      MisBP:0   MisRate:0.00%    MPKI:0.00
PC:18eb6     Total:506      MisBP:0   MisRate:0.00%    MPKI:0.00
PC:13f3a     Total:1      MisBP:0   MisRate:0.00%    MPKI:0.00
PC:10fb2     Total:1180      MisBP:0   MisRate:0.00%    MPKI:0.00
PC:29594     Total:7849      MisBP:0   MisRate:0.00%    MPKI:0.00
PC:1103a     Total:1081      MisBP:0   MisRate:0.00%    MPKI:0.00
PC:18764     Total:38      MisBP:0   MisRate:0.00%    MPKI:0.00
PC:12b56     Total:1264      MisBP:0   MisRate:0.00%    MPKI:0.00
PC:11030     Total:1086      MisBP:0   MisRate:0.00%    MPKI:0.00
PC:137ee     Total:2      MisBP:0   MisRate:0.00%    MPKI:0.00
PC:1876a     Total:35      MisBP:0   MisRate:0.00%    MPKI:0.00
PC:137f0     Total:2      MisBP:0   MisRate:0.00%    MPKI:0.00
PC:1876c     Total:35      MisBP:0   MisRate:0.00%    MPKI:0.00
PC:137f2     Total:2      MisBP:0   MisRate:0.00%    MPKI:0.00
PC:11034     Total:1086      MisBP:0   MisRate:0.00%    MPKI:0.00
PC:1876e     Total:35      MisBP:0   MisRate:0.00%    MPKI:0.00
PC:137f6     Total:2      MisBP:0   MisRate:0.00%    MPKI:0.00
PC:18772     Total:35      MisBP:0   MisRate:0.00%    MPKI:0.00
PC:12b62     Total:1256      MisBP:0   MisRate:0.00%    MPKI:0.00
PC:12b50     Total:1264      MisBP:0   MisRate:0.00%    MPKI:0.00
PC:18774     Total:35      MisBP:0   MisRate:0.00%    MPKI:0.00
PC:11040     Total:1052      MisBP:0   MisRate:0.00%    MPKI:0.00
PC:137fe     Total:2      MisBP:0   MisRate:0.00%    MPKI:0.00
PC:1877a     Total:48255      MisBP:0   MisRate:0.00%    MPKI:0.00
PC:13800     Total:1      MisBP:0   MisRate:0.00%    MPKI:0.00
PC:11042     Total:1052      MisBP:0   MisRate:0.00%    MPKI:0.00
PC:1877c     Total:48255      MisBP:0   MisRate:0.00%    MPKI:0.00
PC:29750     Total:553      MisBP:0   MisRate:0.00%    MPKI:0.00
PC:12b6c     Total:1234      MisBP:0   MisRate:0.00%    MPKI:0.00
PC:11044     Total:1048      MisBP:0   MisRate:0.00%    MPKI:0.00
PC:1877e     Total:43055      MisBP:0   MisRate:0.00%    MPKI:0.00
PC:10230     Total:1      MisBP:0   MisRate:0.00%    MPKI:0.00
PC:1796a     Total:20      MisBP:0   MisRate:0.00%    MPKI:0.00
PC:29538     Total:7866      MisBP:0   MisRate:0.00%    MPKI:0.00
PC:18eda     Total:85      MisBP:0   MisRate:0.00%    MPKI:0.00
PC:13f5e     Total:1      MisBP:0   MisRate:0.00%    MPKI:0.00
PC:16ab2     Total:14      MisBP:0   MisRate:0.00%    MPKI:0.00
PC:13f60     Total:1      MisBP:0   MisRate:0.00%    MPKI:0.00
PC:295bc     Total:7843      MisBP:0   MisRate:0.00%    MPKI:0.00
PC:29520     Total:7871      MisBP:0   MisRate:0.00%    MPKI:0.00
PC:16e80     Total:35      MisBP:0   MisRate:0.00%    MPKI:0.00
PC:1104c     Total:1040      MisBP:0   MisRate:0.00%    MPKI:0.00
PC:29524     Total:7866      MisBP:0   MisRate:0.00%    MPKI:0.00
PC:146c6     Total:304      MisBP:0   MisRate:0.00%    MPKI:0.00
PC:16e84     Total:35      MisBP:0   MisRate:0.00%    MPKI:0.00
PC:13bb2     Total:3075489      MisBP:0   MisRate:0.00%    MPKI:0.00
PC:172f0     Total:139      MisBP:0   MisRate:0.00%    MPKI:0.00
PC:1470a     Total:1123      MisBP:0   MisRate:0.00%    MPKI:0.00
PC:16ddc     Total:4062      MisBP:0   MisRate:0.00%    MPKI:0.00
PC:1461e     Total:1242      MisBP:0   MisRate:0.00%    MPKI:0.00
PC:16dde     Total:3997      MisBP:0   MisRate:0.00%    MPKI:0.00
PC:14620     Total:1242      MisBP:0   MisRate:0.00%    MPKI:0.00
PC:17a1e     Total:20      MisBP:0   MisRate:0.00%    MPKI:0.00
PC:29408     Total:2308      MisBP:0   MisRate:0.00%    MPKI:0.00
PC:12b4c     Total:1268      MisBP:0   MisRate:0.00%    MPKI:0.00
PC:11024     Total:1111      MisBP:0   MisRate:0.00%    MPKI:0.00
PC:137e2     Total:6      MisBP:0   MisRate:0.00%    MPKI:0.00
PC:1875e     Total:38      MisBP:0   MisRate:0.00%    MPKI:0.00
PC:11026     Total:1109      MisBP:0   MisRate:0.00%    MPKI:0.00
PC:137e4     Total:6      MisBP:0   MisRate:0.00%    MPKI:0.00
PC:18760     Total:38      MisBP:0   MisRate:0.00%    MPKI:0.00
PC:178b8     Total:6      MisBP:0   MisRate:0.00%    MPKI:0.00
PC:178a0     Total:6      MisBP:0   MisRate:0.00%    MPKI:0.00
PC:178a4     Total:6      MisBP:0   MisRate:0.00%    MPKI:0.00
PC:1016c     Total:115      MisBP:0   MisRate:0.00%    MPKI:0.00
PC:178a6     Total:6      MisBP:0   MisRate:0.00%    MPKI:0.00
PC:178a8     Total:6      MisBP:0   MisRate:0.00%    MPKI:0.00
PC:10170     Total:115      MisBP:0   MisRate:0.00%    MPKI:0.00
PC:178aa     Total:6      MisBP:0   MisRate:0.00%    MPKI:0.00
PC:10174     Total:114      MisBP:0   MisRate:0.00%    MPKI:0.00
PC:178ae     Total:6      MisBP:0   MisRate:0.00%    MPKI:0.00
PC:178b0     Total:6      MisBP:0   MisRate:0.00%    MPKI:0.00
PC:178b4     Total:6      MisBP:0   MisRate:0.00%    MPKI:0.00
PC:1017c     Total:114      MisBP:0   MisRate:0.00%    MPKI:0.00
PC:178b6     Total:6      MisBP:0   MisRate:0.00%    MPKI:0.00
PC:1789e     Total:14      MisBP:0   MisRate:0.00%    MPKI:0.00
PC:10180     Total:90      MisBP:0   MisRate:0.00%    MPKI:0.00
PC:178ba     Total:6      MisBP:0   MisRate:0.00%    MPKI:0.00
PC:178bc     Total:6      MisBP:0   MisRate:0.00%    MPKI:0.00
PC:101a0     Total:86      MisBP:0   MisRate:0.00%    MPKI:0.00
PC:178da     Total:23      MisBP:0   MisRate:0.00%    MPKI:0.00
PC:178dc     Total:23      MisBP:0   MisRate:0.00%    MPKI:0.00
PC:101a8     Total:84      MisBP:0   MisRate:0.00%    MPKI:0.00
PC:178e2     Total:23      MisBP:0   MisRate:0.00%    MPKI:0.00
PC:101ac     Total:84      MisBP:0   MisRate:0.00%    MPKI:0.00
PC:178e6     Total:23      MisBP:0   MisRate:0.00%    MPKI:0.00
PC:178e8     Total:23      MisBP:0   MisRate:0.00%    MPKI:0.00
PC:101b0     Total:84      MisBP:0   MisRate:0.00%    MPKI:0.00
PC:178ea     Total:23      MisBP:0   MisRate:0.00%    MPKI:0.00
PC:17c24     Total:21262      MisBP:0   MisRate:0.00%    MPKI:0.00
PC:17c00     Total:22834      MisBP:0   MisRate:0.00%    MPKI:0.00
PC:17c04     Total:22615      MisBP:0   MisRate:0.00%    MPKI:0.00
PC:29240     Total:138      MisBP:0   MisRate:0.00%    MPKI:0.00
PC:17c0e     Total:22712      MisBP:0   MisRate:0.00%    MPKI:0.00
PC:29246     Total:10      MisBP:0   MisRate:0.00%    MPKI:0.00
PC:17c14     Total:22710      MisBP:0   MisRate:0.00%    MPKI:0.00
PC:2924a     Total:10      MisBP:0   MisRate:0.00%    MPKI:0.00
PC:17c18     Total:22708      MisBP:0   MisRate:0.00%    MPKI:0.00
PC:2924e     Total:10      MisBP:0   MisRate:0.00%    MPKI:0.00
PC:17c1c     Total:21344      MisBP:0   MisRate:0.00%    MPKI:0.00
PC:29252     Total:10      MisBP:0   MisRate:0.00%    MPKI:0.00
PC:17c20     Total:21261      MisBP:0   MisRate:0.00%    MPKI:0.00
PC:29256     Total:7      MisBP:0   MisRate:0.00%    MPKI:0.00
PC:101b4     Total:84      MisBP:0   MisRate:0.00%    MPKI:0.00
PC:29262     Total:2      MisBP:0   MisRate:0.00%    MPKI:0.00
PC:17c30     Total:21191      MisBP:0   MisRate:0.00%    MPKI:0.00
PC:29266     Total:3      MisBP:0   MisRate:0.00%    MPKI:0.00
PC:17c34     Total:21109      MisBP:0   MisRate:0.00%    MPKI:0.00
PC:17c3a     Total:18091      MisBP:0   MisRate:0.00%    MPKI:0.00
PC:13f28     Total:52220      MisBP:0   MisRate:0.00%    MPKI:0.00
PC:18ea4     Total:63      MisBP:0   MisRate:0.00%    MPKI:0.00
PC:1015c     Total:129      MisBP:0   MisRate:0.00%    MPKI:0.00
PC:17896     Total:14      MisBP:0   MisRate:0.00%    MPKI:0.00
PC:17898     Total:14      MisBP:0   MisRate:0.00%    MPKI:0.00
PC:10160     Total:129      MisBP:0   MisRate:0.00%    MPKI:0.00
PC:1789a     Total:14      MisBP:0   MisRate:0.00%    MPKI:0.00
PC:10164     Total:129      MisBP:0   MisRate:0.00%    MPKI:0.00
PC:1783a     Total:26      MisBP:0   MisRate:0.00%    MPKI:0.00
PC:29280     Total:2      MisBP:0   MisRate:0.00%    MPKI:0.00
PC:17c4e     Total:12616      MisBP:0   MisRate:0.00%    MPKI:0.00
PC:18eb8     Total:132740      MisBP:0   MisRate:0.00%    MPKI:0.00
PC:17c54     Total:12384      MisBP:0   MisRate:0.00%    MPKI:0.00
PC:18ebe     Total:66370      MisBP:0   MisRate:0.00%    MPKI:0.00
PC:292a6     Total:1      MisBP:0   MisRate:0.00%    MPKI:0.00
PC:17c74     Total:5551      MisBP:0   MisRate:0.00%    MPKI:0.00
PC:13f62     Total:5      MisBP:0   MisRate:0.00%    MPKI:0.00
PC:18ede     Total:85      MisBP:0   MisRate:0.00%    MPKI:0.00
PC:17830     Total:15      MisBP:0   MisRate:0.00%    MPKI:0.00
PC:17832     Total:15      MisBP:0   MisRate:0.00%    MPKI:0.00
PC:17834     Total:15      MisBP:0   MisRate:0.00%    MPKI:0.00
PC:17838     Total:15      MisBP:0   MisRate:0.00%    MPKI:0.00
PC:17c46     Total:12595      MisBP:0   MisRate:0.00%    MPKI:0.00
PC:1783e     Total:26      MisBP:0   MisRate:0.00%    MPKI:0.00
PC:17874     Total:32      MisBP:0   MisRate:0.00%    MPKI:0.00
PC:17876     Total:32      MisBP:0   MisRate:0.00%    MPKI:0.00
PC:1787c     Total:21      MisBP:0   MisRate:0.00%    MPKI:0.00
PC:17880     Total:21      MisBP:0   MisRate:0.00%    MPKI:0.00
PC:17882     Total:21      MisBP:0   MisRate:0.00%    MPKI:0.00
PC:17884     Total:21      MisBP:0   MisRate:0.00%    MPKI:0.00
PC:17888     Total:21      MisBP:0   MisRate:0.00%    MPKI:0.00
PC:10150     Total:1011      MisBP:0   MisRate:0.00%    MPKI:0.00
PC:1788a     Total:21      MisBP:0   MisRate:0.00%    MPKI:0.00
PC:1788c     Total:21      MisBP:0   MisRate:0.00%    MPKI:0.00
PC:10154     Total:1009      MisBP:0   MisRate:0.00%    MPKI:0.00
PC:17890     Total:6      MisBP:0   MisRate:0.00%    MPKI:0.00
PC:178c6     Total:5      MisBP:0   MisRate:0.00%    MPKI:0.00
PC:178ee     Total:23      MisBP:0   MisRate:0.00%    MPKI:0.00
PC:178f0     Total:20      MisBP:0   MisRate:0.00%    MPKI:0.00
PC:101b8     Total:561      MisBP:0   MisRate:0.00%    MPKI:0.00
PC:178f2     Total:20      MisBP:0   MisRate:0.00%    MPKI:0.00
PC:101bc     Total:79      MisBP:0   MisRate:0.00%    MPKI:0.00
PC:178f6     Total:6      MisBP:0   MisRate:0.00%    MPKI:0.00
PC:178f8     Total:1      MisBP:0   MisRate:0.00%    MPKI:0.00
PC:178fc     Total:16      MisBP:0   MisRate:0.00%    MPKI:0.00
PC:101c4     Total:227      MisBP:0   MisRate:0.00%    MPKI:0.00
PC:178fe     Total:16      MisBP:0   MisRate:0.00%    MPKI:0.00
PC:178c0     Total:5      MisBP:0   MisRate:0.00%    MPKI:0.00
PC:178c4     Total:5      MisBP:0   MisRate:0.00%    MPKI:0.00
PC:1018c     Total:90      MisBP:0   MisRate:0.00%    MPKI:0.00
PC:179aa     Total:14      MisBP:0   MisRate:0.00%    MPKI:0.00
PC:10190     Total:90      MisBP:0   MisRate:0.00%    MPKI:0.00
PC:178ca     Total:5      MisBP:0   MisRate:0.00%    MPKI:0.00
PC:178cc     Total:5      MisBP:0   MisRate:0.00%    MPKI:0.00
PC:10194     Total:172      MisBP:0   MisRate:0.00%    MPKI:0.00
PC:178ce     Total:5      MisBP:0   MisRate:0.00%    MPKI:0.00
PC:178d0     Total:5      MisBP:0   MisRate:0.00%    MPKI:0.00
PC:10198     Total:86      MisBP:0   MisRate:0.00%    MPKI:0.00
PC:178d2     Total:5      MisBP:0   MisRate:0.00%    MPKI:0.00
PC:1019c     Total:172      MisBP:0   MisRate:0.00%    MPKI:0.00
PC:178d6     Total:10      MisBP:0   MisRate:0.00%    MPKI:0.00
PC:29274     Total:6      MisBP:0   MisRate:0.00%    MPKI:0.00
PC:17c42     Total:12559      MisBP:0   MisRate:0.00%    MPKI:0.00
PC:29278     Total:3      MisBP:0   MisRate:0.00%    MPKI:0.00
PC:16f60     Total:158      MisBP:0   MisRate:0.00%    MPKI:0.00
PC:16f48     Total:145      MisBP:0   MisRate:0.00%    MPKI:0.00
PC:295ec     Total:7771      MisBP:0   MisRate:0.00%    MPKI:0.00
PC:16f4c     Total:4395      MisBP:0   MisRate:0.00%    MPKI:0.00
PC:295f0     Total:7762      MisBP:0   MisRate:0.00%    MPKI:0.00
PC:16f50     Total:2196      MisBP:0   MisRate:0.00%    MPKI:0.00
PC:295f4     Total:7762      MisBP:0   MisRate:0.00%    MPKI:0.00
PC:295f8     Total:7761      MisBP:0   MisRate:0.00%    MPKI:0.00
PC:295fc     Total:7761      MisBP:0   MisRate:0.00%    MPKI:0.00
PC:16f5c     Total:158      MisBP:0   MisRate:0.00%    MPKI:0.00
PC:137dc     Total:6      MisBP:0   MisRate:0.00%    MPKI:0.00
PC:18758     Total:38      MisBP:0   MisRate:0.00%    MPKI:0.00
PC:1101e     Total:1116      MisBP:0   MisRate:0.00%    MPKI:0.00
PC:29600     Total:7743      MisBP:0   MisRate:0.00%    MPKI:0.00
PC:295e8     Total:7772      MisBP:0   MisRate:0.00%    MPKI:0.00
PC:29604     Total:7743      MisBP:0   MisRate:0.00%    MPKI:0.00
PC:16f64     Total:316      MisBP:0   MisRate:0.00%    MPKI:0.00
PC:29608     Total:7743      MisBP:0   MisRate:0.00%    MPKI:0.00
PC:2960c     Total:7743      MisBP:0   MisRate:0.00%    MPKI:0.00
PC:16f6c     Total:42      MisBP:0   MisRate:0.00%    MPKI:0.00
PC:29610     Total:7743      MisBP:0   MisRate:0.00%    MPKI:0.00
PC:16f70     Total:42      MisBP:0   MisRate:0.00%    MPKI:0.00
PC:29614     Total:7743      MisBP:0   MisRate:0.00%    MPKI:0.00
PC:16f74     Total:42      MisBP:0   MisRate:0.00%    MPKI:0.00
PC:29618     Total:7743      MisBP:0   MisRate:0.00%    MPKI:0.00
PC:16f78     Total:42      MisBP:0   MisRate:0.00%    MPKI:0.00
PC:2961c     Total:7743      MisBP:0   MisRate:0.00%    MPKI:0.00
PC:29620     Total:7743      MisBP:0   MisRate:0.00%    MPKI:0.00
PC:1472a     Total:16      MisBP:0   MisRate:0.00%    MPKI:0.00
PC:16ec8     Total:4721      MisBP:0   MisRate:0.00%    MPKI:0.00
PC:29570     Total:7852      MisBP:0   MisRate:0.00%    MPKI:0.00
PC:14712     Total:1115      MisBP:0   MisRate:0.00%    MPKI:0.00
PC:186cc     Total:6376      MisBP:0   MisRate:0.00%    MPKI:0.00
PC:10f92     Total:1423      MisBP:0   MisRate:0.00%    MPKI:0.00
PC:29574     Total:7852      MisBP:0   MisRate:0.00%    MPKI:0.00
PC:29578     Total:7852      MisBP:0   MisRate:0.00%    MPKI:0.00
PC:186dc     Total:288      MisBP:0   MisRate:0.00%    MPKI:0.00
PC:10fa2     Total:211      MisBP:0   MisRate:0.00%    MPKI:0.00
PC:29584     Total:7849      MisBP:0   MisRate:0.00%    MPKI:0.00
PC:14726     Total:16      MisBP:0   MisRate:0.00%    MPKI:0.00
PC:16ee4     Total:73      MisBP:0   MisRate:0.00%    MPKI:0.00
PC:29588     Total:7849      MisBP:0   MisRate:0.00%    MPKI:0.00
PC:29624     Total:7743      MisBP:0   MisRate:0.00%    MPKI:0.00
PC:16ee8     Total:73      MisBP:0   MisRate:0.00%    MPKI:0.00
PC:29598     Total:7849      MisBP:0   MisRate:0.00%    MPKI:0.00
PC:1473a     Total:1      MisBP:0   MisRate:0.00%    MPKI:0.00
PC:16ef8     Total:96      MisBP:0   MisRate:0.00%    MPKI:0.00
PC:186f4     Total:1826      MisBP:0   MisRate:0.00%    MPKI:0.00
PC:10fba     Total:4641      MisBP:0   MisRate:0.00%    MPKI:0.00
PC:2959c     Total:7849      MisBP:0   MisRate:0.00%    MPKI:0.00
PC:1473e     Total:1      MisBP:0   MisRate:0.00%    MPKI:0.00
PC:16efc     Total:48      MisBP:0   MisRate:0.00%    MPKI:0.00
PC:295a4     Total:7844      MisBP:0   MisRate:0.00%    MPKI:0.00
PC:16f04     Total:10      MisBP:0   MisRate:0.00%    MPKI:0.00
PC:295e0     Total:7773      MisBP:0   MisRate:0.00%    MPKI:0.00
PC:295e4     Total:7773      MisBP:0   MisRate:0.00%    MPKI:0.00
PC:17984     Total:10      MisBP:0   MisRate:0.00%    MPKI:0.00
PC:179ae     Total:33      MisBP:0   MisRate:0.00%    MPKI:0.00
PC:179b0     Total:33      MisBP:0   MisRate:0.00%    MPKI:0.00
PC:179b6     Total:29      MisBP:0   MisRate:0.00%    MPKI:0.00
PC:179ba     Total:29      MisBP:0   MisRate:0.00%    MPKI:0.00
PC:179bc     Total:29      MisBP:0   MisRate:0.00%    MPKI:0.00
PC:179be     Total:25      MisBP:0   MisRate:0.00%    MPKI:0.00
PC:179c2     Total:25      MisBP:0   MisRate:0.00%    MPKI:0.00
PC:179c4     Total:25      MisBP:0   MisRate:0.00%    MPKI:0.00
PC:179c6     Total:25      MisBP:0   MisRate:0.00%    MPKI:0.00
PC:179cc     Total:12      MisBP:0   MisRate:0.00%    MPKI:0.00
PC:179ce     Total:1      MisBP:0   MisRate:0.00%    MPKI:0.00
PC:1797e     Total:10      MisBP:0   MisRate:0.00%    MPKI:0.00
PC:17982     Total:10      MisBP:0   MisRate:0.00%    MPKI:0.00
PC:1797c     Total:14      MisBP:0   MisRate:0.00%    MPKI:0.00
PC:17988     Total:10      MisBP:0   MisRate:0.00%    MPKI:0.00
PC:1798a     Total:10      MisBP:0   MisRate:0.00%    MPKI:0.00
PC:1798c     Total:10      MisBP:0   MisRate:0.00%    MPKI:0.00
PC:1798e     Total:10      MisBP:0   MisRate:0.00%    MPKI:0.00
PC:17990     Total:10      MisBP:0   MisRate:0.00%    MPKI:0.00
PC:17994     Total:9      MisBP:0   MisRate:0.00%    MPKI:0.00
PC:17998     Total:9      MisBP:0   MisRate:0.00%    MPKI:0.00
PC:1799a     Total:9      MisBP:0   MisRate:0.00%    MPKI:0.00
PC:1799e     Total:9      MisBP:0   MisRate:0.00%    MPKI:0.00
PC:179a0     Total:9      MisBP:0   MisRate:0.00%    MPKI:0.00
PC:179a2     Total:9      MisBP:0   MisRate:0.00%    MPKI:0.00
PC:179a4     Total:9      MisBP:0   MisRate:0.00%    MPKI:0.00
PC:179a6     Total:9      MisBP:0   MisRate:0.00%    MPKI:0.00
PC:16fa0     Total:39      MisBP:0   MisRate:0.00%    MPKI:0.00
PC:16f84     Total:40      MisBP:0   MisRate:0.00%    MPKI:0.00
PC:29628     Total:7743      MisBP:0   MisRate:0.00%    MPKI:0.00
PC:16f88     Total:40      MisBP:0   MisRate:0.00%    MPKI:0.00
PC:2962c     Total:7743      MisBP:0   MisRate:0.00%    MPKI:0.00
PC:29630     Total:7743      MisBP:0   MisRate:0.00%    MPKI:0.00
PC:16f90     Total:40      MisBP:0   MisRate:0.00%    MPKI:0.00
PC:29634     Total:7743      MisBP:0   MisRate:0.00%    MPKI:0.00
PC:16f94     Total:40      MisBP:0   MisRate:0.00%    MPKI:0.00
PC:29638     Total:7743      MisBP:0   MisRate:0.00%    MPKI:0.00
PC:16f98     Total:40      MisBP:0   MisRate:0.00%    MPKI:0.00
PC:2963c     Total:7743      MisBP:0   MisRate:0.00%    MPKI:0.00
PC:16f9c     Total:40      MisBP:0   MisRate:0.00%    MPKI:0.00
PC:29640     Total:7743      MisBP:0   MisRate:0.00%    MPKI:0.00
PC:13f30     Total:52206      MisBP:0   MisRate:0.00%    MPKI:0.00
PC:13bb4     Total:3073325      MisBP:0   MisRate:0.00%    MPKI:0.00
PC:172f2     Total:139      MisBP:0   MisRate:0.00%    MPKI:0.00
PC:29644     Total:7743      MisBP:0   MisRate:0.00%    MPKI:0.00
PC:16fa4     Total:39      MisBP:0   MisRate:0.00%    MPKI:0.00
PC:13bc4     Total:3058383      MisBP:0   MisRate:0.00%    MPKI:0.00
PC:17302     Total:8      MisBP:0   MisRate:0.00%    MPKI:0.00
PC:16fb4     Total:38      MisBP:0   MisRate:0.00%    MPKI:0.00
PC:29660     Total:574      MisBP:0   MisRate:0.00%    MPKI:0.00
PC:16fc0     Total:31      MisBP:0   MisRate:0.00%    MPKI:0.00
PC:17974     Total:14      MisBP:0   MisRate:0.00%    MPKI:0.00
PC:17978     Total:14      MisBP:0   MisRate:0.00%    MPKI:0.00
PC:1797a     Total:14      MisBP:0   MisRate:0.00%    MPKI:0.00
PC:18574     Total:16659      MisBP:0   MisRate:0.00%    MPKI:0.00
PC:29344     Total:880      MisBP:0   MisRate:0.00%    MPKI:0.00
PC:169fe     Total:161      MisBP:0   MisRate:0.00%    MPKI:0.00
PC:2929a     Total:1      MisBP:0   MisRate:0.00%    MPKI:0.00
PC:17c68     Total:10251      MisBP:0   MisRate:0.00%    MPKI:0.00
PC:1857e     Total:16355      MisBP:0   MisRate:0.00%    MPKI:0.00
PC:13602     Total:1031      MisBP:0   MisRate:0.00%    MPKI:0.00
PC:293e0     Total:118      MisBP:0   MisRate:0.00%    MPKI:0.00
PC:13eac     Total:130024      MisBP:0   MisRate:0.00%    MPKI:0.00
PC:169c8     Total:196      MisBP:0   MisRate:0.00%    MPKI:0.00
PC:36230     Total:9      MisBP:0   MisRate:0.00%    MPKI:0.00
PC:135cc     Total:1124      MisBP:0   MisRate:0.00%    MPKI:0.00
PC:13ea2     Total:130026      MisBP:0   MisRate:0.00%    MPKI:0.00
PC:3625c     Total:21      MisBP:0   MisRate:0.00%    MPKI:0.00
PC:13566     Total:845      MisBP:0   MisRate:0.00%    MPKI:0.00
PC:135f8     Total:1095      MisBP:0   MisRate:0.00%    MPKI:0.00
PC:16d36     Total:74      MisBP:0   MisRate:0.00%    MPKI:0.00
PC:17b9e     Total:33919      MisBP:0   MisRate:0.00%    MPKI:0.00
PC:16a4a     Total:136      MisBP:0   MisRate:0.00%    MPKI:0.00
PC:17cb4     Total:33      MisBP:0   MisRate:0.00%    MPKI:0.00
PC:18f1e     Total:115      MisBP:0   MisRate:0.00%    MPKI:0.00
PC:10e90     Total:147      MisBP:0   MisRate:0.00%    MPKI:0.00
PC:185ca     Total:188968      MisBP:0   MisRate:0.00%    MPKI:0.00
PC:1364e     Total:70      MisBP:0   MisRate:0.00%    MPKI:0.00
PC:2942c     Total:2303      MisBP:0   MisRate:0.00%    MPKI:0.00
PC:16d8c     Total:4040      MisBP:0   MisRate:0.00%    MPKI:0.00
PC:13ef8     Total:54770      MisBP:0   MisRate:0.00%    MPKI:0.00
PC:16a50     Total:136      MisBP:0   MisRate:0.00%    MPKI:0.00
PC:169e2     Total:191      MisBP:0   MisRate:0.00%    MPKI:0.00
PC:13556     Total:845      MisBP:0   MisRate:0.00%    MPKI:0.00
PC:1e5a2     Total:5      MisBP:0   MisRate:0.00%    MPKI:0.00
PC:146aa     Total:439      MisBP:0   MisRate:0.00%    MPKI:0.00
PC:186f2     Total:1826      MisBP:0   MisRate:0.00%    MPKI:0.00
PC:10fb8     Total:1176      MisBP:0   MisRate:0.00%    MPKI:0.00
PC:146f6     Total:1078      MisBP:0   MisRate:0.00%    MPKI:0.00
PC:294f4     Total:682      MisBP:0   MisRate:0.00%    MPKI:0.00
PC:1e58e     Total:15      MisBP:0   MisRate:0.00%    MPKI:0.00
PC:14696     Total:554      MisBP:0   MisRate:0.00%    MPKI:0.00
PC:16e54     Total:11049      MisBP:0   MisRate:0.00%    MPKI:0.00
PC:294f0     Total:683      MisBP:0   MisRate:0.00%    MPKI:0.00
PC:1e58a     Total:21      MisBP:0   MisRate:0.00%    MPKI:0.00
PC:14692     Total:554      MisBP:0   MisRate:0.00%    MPKI:0.00
PC:17cba     Total:33      MisBP:0   MisRate:0.00%    MPKI:0.00
PC:17c4c     Total:12575      MisBP:0   MisRate:0.00%    MPKI:0.00
PC:18562     Total:16668      MisBP:0   MisRate:0.00%    MPKI:0.00
PC:135e6     Total:1105      MisBP:0   MisRate:0.00%    MPKI:0.00
PC:16d24     Total:74      MisBP:0   MisRate:0.00%    MPKI:0.00
PC:13e90     Total:130085      MisBP:0   MisRate:0.00%    MPKI:0.00
PC:29688     Total:573      MisBP:0   MisRate:0.00%    MPKI:0.00
PC:13bf8     Total:623      MisBP:0   MisRate:0.00%    MPKI:0.00
PC:111b4     Total:1022      MisBP:0   MisRate:0.00%    MPKI:0.00
PC:10eca     Total:141      MisBP:0   MisRate:0.00%    MPKI:0.00
PC:18604     Total:200091      MisBP:0   MisRate:0.00%    MPKI:0.00
PC:13688     Total:16      MisBP:0   MisRate:0.00%    MPKI:0.00
PC:361ca     Total:251      MisBP:0   MisRate:0.00%    MPKI:0.00
PC:184e2     Total:480186      MisBP:0   MisRate:0.00%    MPKI:0.00
PC:169b8     Total:213      MisBP:0   MisRate:0.00%    MPKI:0.00
PC:169a6     Total:224      MisBP:0   MisRate:0.00%    MPKI:0.00
PC:294e4     Total:684      MisBP:0   MisRate:0.00%    MPKI:0.00
PC:1e57e     Total:31      MisBP:0   MisRate:0.00%    MPKI:0.00
PC:16e44     Total:12921      MisBP:0   MisRate:0.00%    MPKI:0.00
PC:1364c     Total:70      MisBP:0   MisRate:0.00%    MPKI:0.00
PC:13ef6     Total:54771      MisBP:0   MisRate:0.00%    MPKI:0.00
PC:29550     Total:7859      MisBP:0   MisRate:0.00%    MPKI:0.00
PC:146f2     Total:1083      MisBP:0   MisRate:0.00%    MPKI:0.00
PC:16eb0     Total:75      MisBP:0   MisRate:0.00%    MPKI:0.00
PC:17ba2     Total:33005      MisBP:0   MisRate:0.00%    MPKI:0.00
PC:16a4e     Total:136      MisBP:0   MisRate:0.00%    MPKI:0.00
PC:17cb8     Total:33      MisBP:0   MisRate:0.00%    MPKI:0.00
PC:13efc     Total:54770      MisBP:0   MisRate:0.00%    MPKI:0.00
PC:16dca     Total:4115      MisBP:0   MisRate:0.00%    MPKI:0.00
PC:36220     Total:7      MisBP:0   MisRate:0.00%    MPKI:0.00
PC:18538     Total:1      MisBP:0   MisRate:0.00%    MPKI:0.00
PC:135bc     Total:773043      MisBP:0   MisRate:0.00%    MPKI:0.00
PC:16cfa     Total:61      MisBP:0   MisRate:0.00%    MPKI:0.00
PC:13bc2     Total:3059649      MisBP:0   MisRate:0.00%    MPKI:0.00
PC:14730     Total:2      MisBP:0   MisRate:0.00%    MPKI:0.00
PC:36240     Total:6      MisBP:0   MisRate:0.00%    MPKI:0.00
PC:18558     Total:16813      MisBP:0   MisRate:0.00%    MPKI:0.00
PC:135dc     Total:1119      MisBP:0   MisRate:0.00%    MPKI:0.00
PC:16d1a     Total:69      MisBP:0   MisRate:0.00%    MPKI:0.00
PC:13bbe     Total:3059863      MisBP:0   MisRate:0.00%    MPKI:0.00
PC:361d2     Total:251      MisBP:0   MisRate:0.00%    MPKI:0.00
PC:184ea     Total:8308593      MisBP:0   MisRate:0.00%    MPKI:0.00
PC:18ec4     Total:66316      MisBP:0   MisRate:0.00%    MPKI:0.00
PC:18f24     Total:1531      MisBP:0   MisRate:0.00%    MPKI:0.00
PC:10f76     Total:1756      MisBP:0   MisRate:0.00%    MPKI:0.00
PC:29558     Total:7858      MisBP:0   MisRate:0.00%    MPKI:0.00
PC:172ec     Total:139      MisBP:0   MisRate:0.00%    MPKI:0.00
PC:169c4     Total:196      MisBP:0   MisRate:0.00%    MPKI:0.00
PC:29260     Total:2      MisBP:0   MisRate:0.00%    MPKI:0.00
PC:17c2e     Total:21222      MisBP:0   MisRate:0.00%    MPKI:0.00
PC:3622c     Total:10      MisBP:0   MisRate:0.00%    MPKI:0.00
PC:135c8     Total:296      MisBP:0   MisRate:0.00%    MPKI:0.00
PC:16d06     Total:51      MisBP:0   MisRate:0.00%    MPKI:0.00
PC:169f0     Total:185      MisBP:0   MisRate:0.00%    MPKI:0.00
PC:2928c     Total:2      MisBP:0   MisRate:0.00%    MPKI:0.00
PC:17c5a     Total:10429      MisBP:0   MisRate:0.00%    MPKI:0.00
PC:184d2     Total:490051      MisBP:0   MisRate:0.00%    MPKI:0.00
PC:36258     Total:9      MisBP:0   MisRate:0.00%    MPKI:0.00
PC:18570     Total:16660      MisBP:0   MisRate:0.00%    MPKI:0.00
PC:135f4     Total:1095      MisBP:0   MisRate:0.00%    MPKI:0.00
PC:16d32     Total:70      MisBP:0   MisRate:0.00%    MPKI:0.00
PC:2968c     Total:573      MisBP:0   MisRate:0.00%    MPKI:0.00
PC:16fec     Total:8      MisBP:0   MisRate:0.00%    MPKI:0.00
PC:13bfc     Total:3306      MisBP:0   MisRate:0.00%    MPKI:0.00
PC:1733a     Total:205      MisBP:0   MisRate:0.00%    MPKI:0.00
PC:111b8     Total:1019      MisBP:0   MisRate:0.00%    MPKI:0.00
PC:10ece     Total:91      MisBP:0   MisRate:0.00%    MPKI:0.00
PC:18608     Total:199957      MisBP:0   MisRate:0.00%    MPKI:0.00
PC:1368c     Total:16      MisBP:0   MisRate:0.00%    MPKI:0.00
PC:1460c     Total:42      MisBP:0   MisRate:0.00%    MPKI:0.00
PC:13618     Total:148      MisBP:0   MisRate:0.00%    MPKI:0.00
PC:293c8     Total:667      MisBP:0   MisRate:0.00%    MPKI:0.00
PC:13e94     Total:130085      MisBP:0   MisRate:0.00%    MPKI:0.00
PC:1859a     Total:16320      MisBP:0   MisRate:0.00%    MPKI:0.00
PC:1361e     Total:148      MisBP:0   MisRate:0.00%    MPKI:0.00
PC:293fc     Total:704      MisBP:0   MisRate:0.00%    MPKI:0.00
PC:294ec     Total:683      MisBP:0   MisRate:0.00%    MPKI:0.00
PC:1e586     Total:21      MisBP:0   MisRate:0.00%    MPKI:0.00
PC:1468e     Total:554      MisBP:0   MisRate:0.00%    MPKI:0.00
PC:16e4c     Total:12921      MisBP:0   MisRate:0.00%    MPKI:0.00
PC:16a14     Total:157      MisBP:0   MisRate:0.00%    MPKI:0.00
PC:17c7e     Total:11      MisBP:0   MisRate:0.00%    MPKI:0.00
PC:18ee8     Total:83      MisBP:0   MisRate:0.00%    MPKI:0.00
PC:18594     Total:16348      MisBP:0   MisRate:0.00%    MPKI:0.00
PC:135ea     Total:1103      MisBP:0   MisRate:0.00%    MPKI:0.00
PC:292ac     Total:1      MisBP:0   MisRate:0.00%    MPKI:0.00
PC:13ebc     Total:977      MisBP:0   MisRate:0.00%    MPKI:0.00
PC:13612     Total:153      MisBP:0   MisRate:0.00%    MPKI:0.00
PC:293f0     Total:118      MisBP:0   MisRate:0.00%    MPKI:0.00
PC:294e0     Total:684      MisBP:0   MisRate:0.00%    MPKI:0.00
PC:1e57a     Total:31      MisBP:0   MisRate:0.00%    MPKI:0.00
PC:16e40     Total:12921      MisBP:0   MisRate:0.00%    MPKI:0.00
PC:2937c     Total:250      MisBP:0   MisRate:0.00%    MPKI:0.00
PC:294d8     Total:684      MisBP:0   MisRate:0.00%    MPKI:0.00
PC:1467a     Total:554      MisBP:0   MisRate:0.00%    MPKI:0.00
PC:16e38     Total:14566      MisBP:0   MisRate:0.00%    MPKI:0.00
PC:294d4     Total:684      MisBP:0   MisRate:0.00%    MPKI:0.00
PC:1e56e     Total:31      MisBP:0   MisRate:0.00%    MPKI:0.00
PC:10228     Total:1      MisBP:0   MisRate:0.00%    MPKI:0.00
PC:294fc     Total:682      MisBP:0   MisRate:0.00%    MPKI:0.00
PC:16a28     Total:151      MisBP:0   MisRate:0.00%    MPKI:0.00
PC:17c92     Total:43      MisBP:0   MisRate:0.00%    MPKI:0.00
PC:18efc     Total:4990      MisBP:0   MisRate:0.00%    MPKI:0.00
PC:2974c     Total:554      MisBP:0   MisRate:0.00%    MPKI:0.00
PC:185a8     Total:16306      MisBP:0   MisRate:0.00%    MPKI:0.00
PC:1362c     Total:147      MisBP:0   MisRate:0.00%    MPKI:0.00
PC:169f2     Total:185      MisBP:0   MisRate:0.00%    MPKI:0.00
PC:17c5c     Total:10414      MisBP:0   MisRate:0.00%    MPKI:0.00
PC:13ea0     Total:130080      MisBP:0   MisRate:0.00%    MPKI:0.00
PC:185a4     Total:16306      MisBP:0   MisRate:0.00%    MPKI:0.00
PC:13628     Total:147      MisBP:0   MisRate:0.00%    MPKI:0.00
PC:13e9c     Total:130080      MisBP:0   MisRate:0.00%    MPKI:0.00
PC:14676     Total:554      MisBP:0   MisRate:0.00%    MPKI:0.00
PC:29744     Total:554      MisBP:0   MisRate:0.00%    MPKI:0.00
PC:185a0     Total:16320      MisBP:0   MisRate:0.00%    MPKI:0.00
PC:13624     Total:147      MisBP:0   MisRate:0.00%    MPKI:0.00
PC:16a1c     Total:152      MisBP:0   MisRate:0.00%    MPKI:0.00
PC:17c86     Total:5      MisBP:0   MisRate:0.00%    MPKI:0.00
PC:18ef0     Total:9968      MisBP:0   MisRate:0.00%    MPKI:0.00
PC:10224     Total:5      MisBP:0   MisRate:0.00%    MPKI:0.00
PC:29740     Total:554      MisBP:0   MisRate:0.00%    MPKI:0.00
PC:13620     Total:147      MisBP:0   MisRate:0.00%    MPKI:0.00
PC:169e6     Total:191      MisBP:0   MisRate:0.00%    MPKI:0.00
PC:17c50     Total:12602      MisBP:0   MisRate:0.00%    MPKI:0.00
PC:3624e     Total:3      MisBP:0   MisRate:0.00%    MPKI:0.00
PC:18566     Total:16666      MisBP:0   MisRate:0.00%    MPKI:0.00
PC:13606     Total:1030      MisBP:0   MisRate:0.00%    MPKI:0.00
PC:292a2     Total:1      MisBP:0   MisRate:0.00%    MPKI:0.00
PC:17c70     Total:5556      MisBP:0   MisRate:0.00%    MPKI:0.00
PC:18586     Total:16353      MisBP:0   MisRate:0.00%    MPKI:0.00
PC:1360a     Total:1030      MisBP:0   MisRate:0.00%    MPKI:0.00
PC:293e8     Total:118      MisBP:0   MisRate:0.00%    MPKI:0.00
PC:13eb4     Total:166498      MisBP:0   MisRate:0.00%    MPKI:0.00
PC:186da     Total:288      MisBP:0   MisRate:0.00%    MPKI:0.00
PC:10fa0     Total:211      MisBP:0   MisRate:0.00%    MPKI:0.00
PC:1471a     Total:1112      MisBP:0   MisRate:0.00%    MPKI:0.00
PC:16a02     Total:158      MisBP:0   MisRate:0.00%    MPKI:0.00
PC:2929e     Total:1      MisBP:0   MisRate:0.00%    MPKI:0.00
PC:17c6c     Total:10226      MisBP:0   MisRate:0.00%    MPKI:0.00
PC:18582     Total:16354      MisBP:0   MisRate:0.00%    MPKI:0.00
PC:16a06     Total:158      MisBP:0   MisRate:0.00%    MPKI:0.00
PC:293e4     Total:59      MisBP:0   MisRate:0.00%    MPKI:0.00
PC:169cc     Total:194      MisBP:0   MisRate:0.00%    MPKI:0.00
PC:29268     Total:3      MisBP:0   MisRate:0.00%    MPKI:0.00
PC:17c36     Total:18313      MisBP:0   MisRate:0.00%    MPKI:0.00
PC:18ea0     Total:63      MisBP:0   MisRate:0.00%    MPKI:0.00
PC:36234     Total:9      MisBP:0   MisRate:0.00%    MPKI:0.00
PC:135d0     Total:1124      MisBP:0   MisRate:0.00%    MPKI:0.00
PC:16d0e     Total:52      MisBP:0   MisRate:0.00%    MPKI:0.00
PC:361c2     Total:251      MisBP:0   MisRate:0.00%    MPKI:0.00
PC:1355e     Total:845      MisBP:0   MisRate:0.00%    MPKI:0.00
PC:1e5aa     Total:5      MisBP:0   MisRate:0.00%    MPKI:0.00
PC:146b2     Total:954      MisBP:0   MisRate:0.00%    MPKI:0.00
PC:361ba     Total:756      MisBP:0   MisRate:0.00%    MPKI:0.00
PC:361d6     Total:180      MisBP:0   MisRate:0.00%    MPKI:0.00
PC:16e34     Total:14567      MisBP:0   MisRate:0.00%    MPKI:0.00
PC:13f6a     Total:1      MisBP:0   MisRate:0.00%    MPKI:0.00
PC:13f66     Total:1      MisBP:0   MisRate:0.00%    MPKI:0.00
PC:17ba6     Total:32994      MisBP:0   MisRate:0.00%    MPKI:0.00
PC:13f00     Total:7073      MisBP:0   MisRate:0.00%    MPKI:0.00
PC:17b96     Total:34536      MisBP:0   MisRate:0.00%    MPKI:0.00
PC:13ef0     Total:54771      MisBP:0   MisRate:0.00%    MPKI:0.00
PC:169f8     Total:170      MisBP:0   MisRate:0.00%    MPKI:0.00
PC:29294     Total:2      MisBP:0   MisRate:0.00%    MPKI:0.00
PC:17c62     Total:10329      MisBP:0   MisRate:0.00%    MPKI:0.00
PC:13ea6     Total:130026      MisBP:0   MisRate:0.00%    MPKI:0.00
PC:135fc     Total:1095      MisBP:0   MisRate:0.00%    MPKI:0.00
PC:16d3a     Total:74      MisBP:0   MisRate:0.00%    MPKI:0.00
PC:1356e     Total:783      MisBP:0   MisRate:0.00%    MPKI:0.00
PC:184ee     Total:4114629      MisBP:0   MisRate:0.00%    MPKI:0.00
PC:13572     Total:783      MisBP:0   MisRate:0.00%    MPKI:0.00
PC:29350     Total:270      MisBP:0   MisRate:0.00%    MPKI:0.00
PC:169da     Total:193      MisBP:0   MisRate:0.00%    MPKI:0.00
PC:36242     Total:4      MisBP:0   MisRate:0.00%    MPKI:0.00
PC:1855a     Total:16813      MisBP:0   MisRate:0.00%    MPKI:0.00
PC:135de     Total:1109      MisBP:0   MisRate:0.00%    MPKI:0.00
PC:293bc     Total:813      MisBP:0   MisRate:0.00%    MPKI:0.00
PC:186d2     Total:289      MisBP:0   MisRate:0.00%    MPKI:0.00
PC:10f98     Total:1274      MisBP:0   MisRate:0.00%    MPKI:0.00
PC:36238     Total:9      MisBP:0   MisRate:0.00%    MPKI:0.00
PC:18550     Total:16817      MisBP:0   MisRate:0.00%    MPKI:0.00
PC:135d4     Total:1124      MisBP:0   MisRate:0.00%    MPKI:0.00
PC:186b8     Total:4402      MisBP:0   MisRate:0.00%    MPKI:0.00
PC:16a62     Total:130      MisBP:0   MisRate:0.00%    MPKI:0.00
PC:13f10     Total:3      MisBP:0   MisRate:0.00%    MPKI:0.00
PC:361f2     Total:171      MisBP:0   MisRate:0.00%    MPKI:0.00
PC:2936c     Total:273      MisBP:0   MisRate:0.00%    MPKI:0.00
PC:361f6     Total:169      MisBP:0   MisRate:0.00%    MPKI:0.00
PC:29370     Total:272      MisBP:0   MisRate:0.00%    MPKI:0.00
PC:1372e     Total:3      MisBP:0   MisRate:0.00%    MPKI:0.00
PC:186aa     Total:766      MisBP:0   MisRate:0.00%    MPKI:0.00
PC:10f70     Total:8814      MisBP:0   MisRate:0.00%    MPKI:0.00
PC:29374     Total:271      MisBP:0   MisRate:0.00%    MPKI:0.00
PC:29378     Total:259      MisBP:0   MisRate:0.00%    MPKI:0.00
PC:29560     Total:7852      MisBP:0   MisRate:0.00%    MPKI:0.00
PC:1373c     Total:3      MisBP:0   MisRate:0.00%    MPKI:0.00
PC:13f0c     Total:2      MisBP:0   MisRate:0.00%    MPKI:0.00
PC:10f7e     Total:1670      MisBP:0   MisRate:0.00%    MPKI:0.00
PC:2964c     Total:7743      MisBP:0   MisRate:0.00%    MPKI:0.00
PC:16fac     Total:38      MisBP:0   MisRate:0.00%    MPKI:0.00
PC:13bbc     Total:3071366      MisBP:0   MisRate:0.00%    MPKI:0.00
PC:29650     Total:7743      MisBP:0   MisRate:0.00%    MPKI:0.00
PC:16fb0     Total:38      MisBP:0   MisRate:0.00%    MPKI:0.00
PC:29674     Total:574      MisBP:0   MisRate:0.00%    MPKI:0.00
PC:16fd4     Total:27      MisBP:0   MisRate:0.00%    MPKI:0.00
PC:13be4     Total:6238633      MisBP:0   MisRate:0.00%    MPKI:0.00
PC:17322     Total:169      MisBP:0   MisRate:0.00%    MPKI:0.00
PC:12b9e     Total:1      MisBP:0   MisRate:0.00%    MPKI:0.00
PC:111a0     Total:1070      MisBP:0   MisRate:0.00%    MPKI:0.00
PC:145f4     Total:558      MisBP:0   MisRate:0.00%    MPKI:0.00
PC:2955c     Total:7858      MisBP:0   MisRate:0.00%    MPKI:0.00
PC:2926e     Total:3      MisBP:0   MisRate:0.00%    MPKI:0.00
PC:17c3c     Total:17845      MisBP:0   MisRate:0.00%    MPKI:0.00
PC:3623a     Total:9      MisBP:0   MisRate:0.00%    MPKI:0.00
PC:18552     Total:16816      MisBP:0   MisRate:0.00%    MPKI:0.00
PC:135d6     Total:1121      MisBP:0   MisRate:0.00%    MPKI:0.00
PC:293b4     Total:1629      MisBP:0   MisRate:0.00%    MPKI:0.00
PC:16d14     Total:52      MisBP:0   MisRate:0.00%    MPKI:0.00
PC:16a54     Total:136      MisBP:0   MisRate:0.00%    MPKI:0.00
PC:17cbe     Total:37      MisBP:0   MisRate:0.00%    MPKI:0.00
PC:18f28     Total:101      MisBP:0   MisRate:0.00%    MPKI:0.00
PC:13f02     Total:7073      MisBP:0   MisRate:0.00%    MPKI:0.00
PC:13738     Total:3      MisBP:0   MisRate:0.00%    MPKI:0.00
PC:10f7a     Total:1754      MisBP:0   MisRate:0.00%    MPKI:0.00
PC:16db2     Total:401      MisBP:0   MisRate:0.00%    MPKI:0.00
PC:146fe     Total:155      MisBP:0   MisRate:0.00%    MPKI:0.00
PC:16ebc     Total:73      MisBP:0   MisRate:0.00%    MPKI:0.00
PC:17baa     Total:33163      MisBP:0   MisRate:0.00%    MPKI:0.00
PC:13f04     Total:81      MisBP:0   MisRate:0.00%    MPKI:0.00
PC:17bac     Total:33062      MisBP:0   MisRate:0.00%    MPKI:0.00
PC:16a58     Total:136      MisBP:0   MisRate:0.00%    MPKI:0.00
PC:17cc2     Total:42      MisBP:0   MisRate:0.00%    MPKI:0.00
PC:18f2c     Total:101      MisBP:0   MisRate:0.00%    MPKI:0.00
PC:13f06     Total:81      MisBP:0   MisRate:0.00%    MPKI:0.00
PC:16a5a     Total:131      MisBP:0   MisRate:0.00%    MPKI:0.00
PC:17cc4     Total:42      MisBP:0   MisRate:0.00%    MPKI:0.00
PC:13f08     Total:81      MisBP:0   MisRate:0.00%    MPKI:0.00
PC:16a5e     Total:131      MisBP:0   MisRate:0.00%    MPKI:0.00
PC:1471e     Total:1107      MisBP:0   MisRate:0.00%    MPKI:0.00
PC:17cd8     Total:12      MisBP:0   MisRate:0.00%    MPKI:0.00
PC:18f42     Total:561      MisBP:0   MisRate:0.00%    MPKI:0.00
PC:18e98     Total:63      MisBP:0   MisRate:0.00%    MPKI:0.00
PC:13f1c     Total:52252      MisBP:0   MisRate:0.00%    MPKI:0.00
PC:16a72     Total:129      MisBP:0   MisRate:0.00%    MPKI:0.00
PC:17cdc     Total:12      MisBP:0   MisRate:0.00%    MPKI:0.00
PC:18f46     Total:561      MisBP:0   MisRate:0.00%    MPKI:0.00
PC:18e9c     Total:63      MisBP:0   MisRate:0.00%    MPKI:0.00
PC:13f20     Total:52226      MisBP:0   MisRate:0.00%    MPKI:0.00
PC:17bc8     Total:28826      MisBP:0   MisRate:0.00%    MPKI:0.00
PC:13f22     Total:52223      MisBP:0   MisRate:0.00%    MPKI:0.00
PC:10f9a     Total:1274      MisBP:0   MisRate:0.00%    MPKI:0.00
PC:2957c     Total:7852      MisBP:0   MisRate:0.00%    MPKI:0.00
PC:16a6e     Total:129      MisBP:0   MisRate:0.00%    MPKI:0.00
PC:16edc     Total:77      MisBP:0   MisRate:0.00%    MPKI:0.00
PC:17bcc     Total:28715      MisBP:0   MisRate:0.00%    MPKI:0.00
PC:16a78     Total:127      MisBP:0   MisRate:0.00%    MPKI:0.00
PC:18f4c     Total:561      MisBP:0   MisRate:0.00%    MPKI:0.00
PC:18ea2     Total:63      MisBP:0   MisRate:0.00%    MPKI:0.00
PC:13f26     Total:52223      MisBP:0   MisRate:0.00%    MPKI:0.00
PC:10f9e     Total:211      MisBP:0   MisRate:0.00%    MPKI:0.00
PC:29580     Total:7849      MisBP:0   MisRate:0.00%    MPKI:0.00
PC:14722     Total:16      MisBP:0   MisRate:0.00%    MPKI:0.00
PC:16ee0     Total:77      MisBP:0   MisRate:0.00%    MPKI:0.00
PC:16a82     Total:125      MisBP:0   MisRate:0.00%    MPKI:0.00
PC:17cec     Total:1      MisBP:0   MisRate:0.00%    MPKI:0.00
PC:18f56     Total:1106      MisBP:0   MisRate:0.00%    MPKI:0.00
PC:17bb8     Total:32073      MisBP:0   MisRate:0.00%    MPKI:0.00
PC:29678     Total:574      MisBP:0   MisRate:0.00%    MPKI:0.00
PC:13be8     Total:3116925      MisBP:0   MisRate:0.00%    MPKI:0.00
PC:17326     Total:170      MisBP:0   MisRate:0.00%    MPKI:0.00
PC:2967c     Total:574      MisBP:0   MisRate:0.00%    MPKI:0.00
PC:16fdc     Total:9      MisBP:0   MisRate:0.00%    MPKI:0.00
PC:169de     Total:191      MisBP:0   MisRate:0.00%    MPKI:0.00
PC:17c48     Total:12587      MisBP:0   MisRate:0.00%    MPKI:0.00
PC:13e8c     Total:130091      MisBP:0   MisRate:0.00%    MPKI:0.00
PC:36246     Total:3      MisBP:0   MisRate:0.00%    MPKI:0.00
PC:1855e     Total:16812      MisBP:0   MisRate:0.00%    MPKI:0.00
PC:135e2     Total:1108      MisBP:0   MisRate:0.00%    MPKI:0.00
PC:293c0     Total:798      MisBP:0   MisRate:0.00%    MPKI:0.00
PC:16d20     Total:69      MisBP:0   MisRate:0.00%    MPKI:0.00
PC:169d2     Total:194      MisBP:0   MisRate:0.00%    MPKI:0.00
PC:16a64     Total:130      MisBP:0   MisRate:0.00%    MPKI:0.00
PC:17cce     Total:12      MisBP:0   MisRate:0.00%    MPKI:0.00
PC:18f38     Total:101      MisBP:0   MisRate:0.00%    MPKI:0.00
PC:13f12     Total:52256      MisBP:0   MisRate:0.00%    MPKI:0.00
PC:10f8a     Total:1423      MisBP:0   MisRate:0.00%    MPKI:0.00
PC:146c8     Total:304      MisBP:0   MisRate:0.00%    MPKI:0.00
PC:2956c     Total:7852      MisBP:0   MisRate:0.00%    MPKI:0.00
PC:1470e     Total:1115      MisBP:0   MisRate:0.00%    MPKI:0.00
PC:16ecc     Total:4721      MisBP:0   MisRate:0.00%    MPKI:0.00
PC:18e90     Total:567      MisBP:0   MisRate:0.00%    MPKI:0.00
PC:13f14     Total:52255      MisBP:0   MisRate:0.00%    MPKI:0.00
PC:18e94     Total:63      MisBP:0   MisRate:0.00%    MPKI:0.00
PC:13f18     Total:52254      MisBP:0   MisRate:0.00%    MPKI:0.00
PC:169a2     Total:224      MisBP:0   MisRate:0.00%    MPKI:0.00
PC:13562     Total:845      MisBP:0   MisRate:0.00%    MPKI:0.00
PC:29340     Total:880      MisBP:0   MisRate:0.00%    MPKI:0.00
PC:1e5ae     Total:4      MisBP:0   MisRate:0.00%    MPKI:0.00
PC:16e74     Total:139      MisBP:0   MisRate:0.00%    MPKI:0.00
PC:169bc     Total:213      MisBP:0   MisRate:0.00%    MPKI:0.00
PC:29258     Total:4      MisBP:0   MisRate:0.00%    MPKI:0.00
PC:17c26     Total:21248      MisBP:0   MisRate:0.00%    MPKI:0.00
PC:1853c     Total:1      MisBP:0   MisRate:0.00%    MPKI:0.00
PC:135c0     Total:756562      MisBP:0   MisRate:0.00%    MPKI:0.00
PC:16cfe     Total:61      MisBP:0   MisRate:0.00%    MPKI:0.00
PC:13bce     Total:3038744      MisBP:0   MisRate:0.00%    MPKI:0.00
PC:1730c     Total:1358      MisBP:0   MisRate:0.00%    MPKI:0.00
PC:10f80     Total:1432      MisBP:0   MisRate:0.00%    MPKI:0.00
PC:361c6     Total:251      MisBP:0   MisRate:0.00%    MPKI:0.00
PC:16eb8     Total:73      MisBP:0   MisRate:0.00%    MPKI:0.00
PC:146fa     Total:787      MisBP:0   MisRate:0.00%    MPKI:0.00
PC:186d6     Total:288      MisBP:0   MisRate:0.00%    MPKI:0.00
PC:10fa4     Total:211      MisBP:0   MisRate:0.00%    MPKI:0.00
PC:14702     Total:147      MisBP:0   MisRate:0.00%    MPKI:0.00
PC:186e2     Total:288      MisBP:0   MisRate:0.00%    MPKI:0.00
PC:10fa8     Total:825      MisBP:0   MisRate:0.00%    MPKI:0.00
PC:16ea4     Total:35      MisBP:0   MisRate:0.00%    MPKI:0.00
PC:146e6     Total:1709      MisBP:0   MisRate:0.00%    MPKI:0.00
PC:29664     Total:574      MisBP:0   MisRate:0.00%    MPKI:0.00
PC:16fc4     Total:31      MisBP:0   MisRate:0.00%    MPKI:0.00
PC:13bd4     Total:3013353      MisBP:0   MisRate:0.00%    MPKI:0.00
PC:29658     Total:574      MisBP:0   MisRate:0.00%    MPKI:0.00
PC:29272     Total:3      MisBP:0   MisRate:0.00%    MPKI:0.00
PC:2934c     Total:270      MisBP:0   MisRate:0.00%    MPKI:0.00
PC:186be     Total:1026      MisBP:0   MisRate:0.00%    MPKI:0.00
PC:10f84     Total:1430      MisBP:0   MisRate:0.00%    MPKI:0.00
PC:16a0c     Total:158      MisBP:0   MisRate:0.00%    MPKI:0.00
PC:292a8     Total:1      MisBP:0   MisRate:0.00%    MPKI:0.00
PC:17c76     Total:37228      MisBP:0   MisRate:0.00%    MPKI:0.00
PC:13f64     Total:1      MisBP:0   MisRate:0.00%    MPKI:0.00
PC:18ee0     Total:2562      MisBP:0   MisRate:0.00%    MPKI:0.00
PC:29730     Total:572      MisBP:0   MisRate:0.00%    MPKI:0.00
PC:1858c     Total:16349      MisBP:0   MisRate:0.00%    MPKI:0.00
PC:13610     Total:153      MisBP:0   MisRate:0.00%    MPKI:0.00
PC:13eba     Total:977      MisBP:0   MisRate:0.00%    MPKI:0.00
PC:169d6     Total:194      MisBP:0   MisRate:0.00%    MPKI:0.00
PC:13bc8     Total:3058302      MisBP:0   MisRate:0.00%    MPKI:0.00
PC:17c40     Total:12565      MisBP:0   MisRate:0.00%    MPKI:0.00
PC:18eaa     Total:63      MisBP:0   MisRate:0.00%    MPKI:0.00
PC:3623e     Total:9      MisBP:0   MisRate:0.00%    MPKI:0.00
PC:18556     Total:16814      MisBP:0   MisRate:0.00%    MPKI:0.00
PC:135da     Total:1121      MisBP:0   MisRate:0.00%    MPKI:0.00
PC:293b8     Total:814      MisBP:0   MisRate:0.00%    MPKI:0.00
PC:16d18     Total:69      MisBP:0   MisRate:0.00%    MPKI:0.00
PC:29514     Total:7887      MisBP:0   MisRate:0.00%    MPKI:0.00
PC:1699e     Total:224      MisBP:0   MisRate:0.00%    MPKI:0.00
PC:17c08     Total:22719      MisBP:0   MisRate:0.00%    MPKI:0.00
PC:294dc     Total:684      MisBP:0   MisRate:0.00%    MPKI:0.00
PC:13bee     Total:3108651      MisBP:0   MisRate:0.00%    MPKI:0.00
PC:2978c     Total:553      MisBP:0   MisRate:0.00%    MPKI:0.00
PC:17308     Total:2716      MisBP:0   MisRate:0.00%    MPKI:0.00
PC:13e96     Total:130084      MisBP:0   MisRate:0.00%    MPKI:0.00
PC:36250     Total:3      MisBP:0   MisRate:0.00%    MPKI:0.00
PC:18568     Total:16666      MisBP:0   MisRate:0.00%    MPKI:0.00
PC:135ec     Total:1103      MisBP:0   MisRate:0.00%    MPKI:0.00
PC:17334     Total:1868      MisBP:0   MisRate:0.00%    MPKI:0.00
PC:169ec     Total:185      MisBP:0   MisRate:0.00%    MPKI:0.00
PC:29288     Total:2      MisBP:0   MisRate:0.00%    MPKI:0.00
PC:17c56     Total:10434      MisBP:0   MisRate:0.00%    MPKI:0.00
PC:18ec0     Total:66316      MisBP:0   MisRate:0.00%    MPKI:0.00
PC:13e9a     Total:130081      MisBP:0   MisRate:0.00%    MPKI:0.00
PC:1856c     Total:16661      MisBP:0   MisRate:0.00%    MPKI:0.00
PC:135f0     Total:1097      MisBP:0   MisRate:0.00%    MPKI:0.00
PC:16d2e     Total:70      MisBP:0   MisRate:0.00%    MPKI:0.00
PC:18ebc     Total:66370      MisBP:0   MisRate:0.00%    MPKI:0.00
PC:10fb0     Total:1183      MisBP:0   MisRate:0.00%    MPKI:0.00
PC:16eac     Total:35      MisBP:0   MisRate:0.00%    MPKI:0.00
PC:146ee     Total:1102      MisBP:0   MisRate:0.00%    MPKI:0.00
PC:2966c     Total:574      MisBP:0   MisRate:0.00%    MPKI:0.00
PC:16fcc     Total:31      MisBP:0   MisRate:0.00%    MPKI:0.00
PC:13bdc     Total:2974751      MisBP:0   MisRate:0.00%    MPKI:0.00
PC:1731a     Total:169      MisBP:0   MisRate:0.00%    MPKI:0.00
PC:1382c     Total:1      MisBP:0   MisRate:0.00%    MPKI:0.00
PC:187a8     Total:89      MisBP:0   MisRate:0.00%    MPKI:0.00
PC:13be0     Total:3130343      MisBP:0   MisRate:0.00%    MPKI:0.00
PC:1731e     Total:169      MisBP:0   MisRate:0.00%    MPKI:0.00
PC:29670     Total:574      MisBP:0   MisRate:0.00%    MPKI:0.00
PC:16fd0     Total:27      MisBP:0   MisRate:0.00%    MPKI:0.00
PC:187b6     Total:8      MisBP:0   MisRate:0.00%    MPKI:0.00
PC:17306     Total:8      MisBP:0   MisRate:0.00%    MPKI:0.00
PC:2965c     Total:574      MisBP:0   MisRate:0.00%    MPKI:0.00
PC:10fac     Total:1188      MisBP:0   MisRate:0.00%    MPKI:0.00
PC:16ea8     Total:35      MisBP:0   MisRate:0.00%    MPKI:0.00
PC:146ea     Total:1707      MisBP:0   MisRate:0.00%    MPKI:0.00
PC:29668     Total:574      MisBP:0   MisRate:0.00%    MPKI:0.00
PC:16fc8     Total:31      MisBP:0   MisRate:0.00%    MPKI:0.00
PC:13bd8     Total:2993284      MisBP:0   MisRate:0.00%    MPKI:0.00
PC:17316     Total:169      MisBP:0   MisRate:0.00%    MPKI:0.00
PC:13828     Total:1      MisBP:0   MisRate:0.00%    MPKI:0.00
PC:187a4     Total:89      MisBP:0   MisRate:0.00%    MPKI:0.00
PC:13bea     Total:3115936      MisBP:0   MisRate:0.00%    MPKI:0.00
PC:12ba4     Total:1      MisBP:0   MisRate:0.00%    MPKI:0.00
PC:17892     Total:1      MisBP:0   MisRate:0.00%    MPKI:0.00
PC:29788     Total:553      MisBP:0   MisRate:0.00%    MPKI:0.00
PC:170e8     Total:1      MisBP:0   MisRate:0.00%    MPKI:0.00
PC:13bda     Total:2983924      MisBP:0   MisRate:0.00%    MPKI:0.00
PC:29648     Total:7743      MisBP:0   MisRate:0.00%    MPKI:0.00
PC:16fa8     Total:38      MisBP:0   MisRate:0.00%    MPKI:0.00
PC:13bb8     Total:3072172      MisBP:0   MisRate:0.00%    MPKI:0.00
PC:12b9a     Total:1      MisBP:0   MisRate:0.00%    MPKI:0.00
PC:187ac     Total:88      MisBP:0   MisRate:0.00%    MPKI:0.00
PC:13bf2     Total:3108273      MisBP:0   MisRate:0.00%    MPKI:0.00
PC:17330     Total:167      MisBP:0   MisRate:0.00%    MPKI:0.00
PC:29790     Total:166      MisBP:0   MisRate:0.00%    MPKI:0.00
PC:169e8     Total:185      MisBP:0   MisRate:0.00%    MPKI:0.00
PC:17c80     Total:5      MisBP:0   MisRate:0.00%    MPKI:0.00
PC:17464     Total:31      MisBP:0   MisRate:0.00%    MPKI:0.00
PC:17466     Total:31      MisBP:0   MisRate:0.00%    MPKI:0.00
PC:17468     Total:31      MisBP:0   MisRate:0.00%    MPKI:0.00
PC:17400     Total:5      MisBP:0   MisRate:0.00%    MPKI:0.00
PC:17402     Total:5      MisBP:0   MisRate:0.00%    MPKI:0.00
PC:17406     Total:5      MisBP:0   MisRate:0.00%    MPKI:0.00
PC:1740a     Total:5      MisBP:0   MisRate:0.00%    MPKI:0.00
PC:1740c     Total:5      MisBP:0   MisRate:0.00%    MPKI:0.00
PC:17410     Total:5      MisBP:0   MisRate:0.00%    MPKI:0.00
PC:17412     Total:5      MisBP:0   MisRate:0.00%    MPKI:0.00
PC:17414     Total:5      MisBP:0   MisRate:0.00%    MPKI:0.00
PC:17416     Total:4      MisBP:0   MisRate:0.00%    MPKI:0.00
PC:17418     Total:4      MisBP:0   MisRate:0.00%    MPKI:0.00
PC:17460     Total:31      MisBP:0   MisRate:0.00%    MPKI:0.00
PC:17c8e     Total:43      MisBP:0   MisRate:0.00%    MPKI:0.00
PC:18ef8     Total:4990      MisBP:0   MisRate:0.00%    MPKI:0.00
PC:17c98     Total:44      MisBP:0   MisRate:0.00%    MPKI:0.00
PC:17c9e     Total:34      MisBP:0   MisRate:0.00%    MPKI:0.00
PC:18f08     Total:2194      MisBP:0   MisRate:0.00%    MPKI:0.00
PC:17ca2     Total:34      MisBP:0   MisRate:0.00%    MPKI:0.00
PC:18f0c     Total:1102      MisBP:0   MisRate:0.00%    MPKI:0.00
PC:17ca8     Total:34      MisBP:0   MisRate:0.00%    MPKI:0.00
PC:18f12     Total:1098      MisBP:0   MisRate:0.00%    MPKI:0.00
PC:17cca     Total:12      MisBP:0   MisRate:0.00%    MPKI:0.00
PC:18f34     Total:101      MisBP:0   MisRate:0.00%    MPKI:0.00
PC:17cd0     Total:12      MisBP:0   MisRate:0.00%    MPKI:0.00
PC:18f3a     Total:101      MisBP:0   MisRate:0.00%    MPKI:0.00
PC:17436     Total:21      MisBP:0   MisRate:0.00%    MPKI:0.00
PC:17366     Total:201      MisBP:0   MisRate:0.00%    MPKI:0.00
PC:17368     Total:201      MisBP:0   MisRate:0.00%    MPKI:0.00
PC:1736a     Total:196      MisBP:0   MisRate:0.00%    MPKI:0.00
PC:1736c     Total:196      MisBP:0   MisRate:0.00%    MPKI:0.00
PC:17370     Total:201      MisBP:0   MisRate:0.00%    MPKI:0.00
PC:1741c     Total:24      MisBP:0   MisRate:0.00%    MPKI:0.00
PC:17420     Total:24      MisBP:0   MisRate:0.00%    MPKI:0.00
PC:17422     Total:24      MisBP:0   MisRate:0.00%    MPKI:0.00
PC:17428     Total:21      MisBP:0   MisRate:0.00%    MPKI:0.00
PC:1742c     Total:21      MisBP:0   MisRate:0.00%    MPKI:0.00
PC:1742e     Total:21      MisBP:0   MisRate:0.00%    MPKI:0.00
PC:17430     Total:21      MisBP:0   MisRate:0.00%    MPKI:0.00
PC:17434     Total:21      MisBP:0   MisRate:0.00%    MPKI:0.00
PC:17cde     Total:12      MisBP:0   MisRate:0.00%    MPKI:0.00
PC:1743a     Total:21      MisBP:0   MisRate:0.00%    MPKI:0.00
PC:1743e     Total:21      MisBP:0   MisRate:0.00%    MPKI:0.00
PC:17444     Total:7      MisBP:0   MisRate:0.00%    MPKI:0.00
PC:17446     Total:144      MisBP:0   MisRate:0.00%    MPKI:0.00
PC:17448     Total:144      MisBP:0   MisRate:0.00%    MPKI:0.00
PC:1744a     Total:144      MisBP:0   MisRate:0.00%    MPKI:0.00
PC:1744e     Total:144      MisBP:0   MisRate:0.00%    MPKI:0.00
PC:17450     Total:31      MisBP:0   MisRate:0.00%    MPKI:0.00
PC:17454     Total:31      MisBP:0   MisRate:0.00%    MPKI:0.00
PC:17456     Total:31      MisBP:0   MisRate:0.00%    MPKI:0.00
PC:17458     Total:31      MisBP:0   MisRate:0.00%    MPKI:0.00
PC:1745a     Total:31      MisBP:0   MisRate:0.00%    MPKI:0.00
PC:1745e     Total:31      MisBP:0   MisRate:0.00%    MPKI:0.00
PC:1873a     Total:53      MisBP:0   MisRate:0.00%    MPKI:0.00
PC:174b0     Total:1301729      MisBP:0   MisRate:0.00%    MPKI:0.00
PC:1871c     Total:47149      MisBP:0   MisRate:0.00%    MPKI:0.00
PC:18720     Total:94298      MisBP:0   MisRate:0.00%    MPKI:0.00
PC:174b6     Total:1301298      MisBP:0   MisRate:0.00%    MPKI:0.00
PC:18724     Total:47149      MisBP:0   MisRate:0.00%    MPKI:0.00
PC:18726     Total:47149      MisBP:0   MisRate:0.00%    MPKI:0.00
PC:18728     Total:47149      MisBP:0   MisRate:0.00%    MPKI:0.00
PC:174c0     Total:1252839      MisBP:0   MisRate:0.00%    MPKI:0.00
PC:1872e     Total:53      MisBP:0   MisRate:0.00%    MPKI:0.00
PC:18732     Total:53      MisBP:0   MisRate:0.00%    MPKI:0.00
PC:18734     Total:53      MisBP:0   MisRate:0.00%    MPKI:0.00
PC:18736     Total:53      MisBP:0   MisRate:0.00%    MPKI:0.00
PC:18738     Total:53      MisBP:0   MisRate:0.00%    MPKI:0.00
PC:1871a     Total:47149      MisBP:0   MisRate:0.00%    MPKI:0.00
PC:137c0     Total:906      MisBP:0   MisRate:0.00%    MPKI:0.00
PC:1873c     Total:53      MisBP:0   MisRate:0.00%    MPKI:0.00
PC:137c2     Total:906      MisBP:0   MisRate:0.00%    MPKI:0.00
PC:1873e     Total:105      MisBP:0   MisRate:0.00%    MPKI:0.00
PC:17b3c     Total:9731      MisBP:0   MisRate:0.00%    MPKI:0.00
PC:17b3e     Total:9731      MisBP:0   MisRate:0.00%    MPKI:0.00
PC:17b40     Total:8819      MisBP:0   MisRate:0.00%    MPKI:0.00
PC:17b44     Total:8819      MisBP:0   MisRate:0.00%    MPKI:0.00
PC:17b48     Total:8819      MisBP:0   MisRate:0.00%    MPKI:0.00
PC:17b4a     Total:8819      MisBP:0   MisRate:0.00%    MPKI:0.00
PC:17b4e     Total:8819      MisBP:0   MisRate:0.00%    MPKI:0.00
PC:17b50     Total:8819      MisBP:0   MisRate:0.00%    MPKI:0.00
PC:17b52     Total:8819      MisBP:0   MisRate:0.00%    MPKI:0.00
PC:292e4     Total:30      MisBP:0   MisRate:0.00%    MPKI:0.00
PC:18f48     Total:561      MisBP:0   MisRate:0.00%    MPKI:0.00
PC:17ce4     Total:12      MisBP:0   MisRate:0.00%    MPKI:0.00
PC:18f4e     Total:561      MisBP:0   MisRate:0.00%    MPKI:0.00
PC:17ce8     Total:12      MisBP:0   MisRate:0.00%    MPKI:0.00
PC:18f52     Total:561      MisBP:0   MisRate:0.00%    MPKI:0.00
PC:17cf2     Total:1      MisBP:0   MisRate:0.00%    MPKI:0.00
PC:18f5c     Total:97      MisBP:0   MisRate:0.00%    MPKI:0.00
PC:17cf8     Total:1      MisBP:0   MisRate:0.00%    MPKI:0.00
PC:17b32     Total:9758      MisBP:0   MisRate:0.00%    MPKI:0.00
PC:17b34     Total:9764      MisBP:0   MisRate:0.00%    MPKI:0.00
PC:17b38     Total:9764      MisBP:0   MisRate:0.00%    MPKI:0.00
PC:17b3a     Total:9733      MisBP:0   MisRate:0.00%    MPKI:0.00
PC:17cac     Total:33      MisBP:0   MisRate:0.00%    MPKI:0.00
PC:17364     Total:201      MisBP:0   MisRate:0.00%    MPKI:0.00
PC:17cb2     Total:33      MisBP:0   MisRate:0.00%    MPKI:0.00
PC:17cb6     Total:33      MisBP:0   MisRate:0.00%    MPKI:0.00
PC:18f20     Total:3062      MisBP:0   MisRate:0.00%    MPKI:0.00
PC:17b5e     Total:102746      MisBP:0   MisRate:0.00%    MPKI:0.00
PC:17b60     Total:102746      MisBP:0   MisRate:0.00%    MPKI:0.00
PC:17b66     Total:98865      MisBP:0   MisRate:0.00%    MPKI:0.00
PC:17b6a     Total:98863      MisBP:0   MisRate:0.00%    MPKI:0.00
PC:17b6c     Total:98863      MisBP:0   MisRate:0.00%    MPKI:0.00
PC:17b70     Total:98862      MisBP:0   MisRate:0.00%    MPKI:0.00
PC:17b72     Total:98862      MisBP:0   MisRate:0.00%    MPKI:0.00
PC:17b7a     Total:70477      MisBP:0   MisRate:0.00%    MPKI:0.00
PC:17b7e     Total:70462      MisBP:0   MisRate:0.00%    MPKI:0.00
PC:17b82     Total:11532      MisBP:0   MisRate:0.00%    MPKI:0.00
PC:17374     Total:1951      MisBP:0   MisRate:0.00%    MPKI:0.00
PC:172c2     Total:10      MisBP:0   MisRate:0.00%    MPKI:0.00
PC:172c4     Total:10      MisBP:0   MisRate:0.00%    MPKI:0.00
PC:172c6     Total:10      MisBP:0   MisRate:0.00%    MPKI:0.00
PC:172c8     Total:10      MisBP:0   MisRate:0.00%    MPKI:0.00
PC:172cc     Total:15      MisBP:0   MisRate:0.00%    MPKI:0.00
PC:172fe     Total:8      MisBP:0   MisRate:0.00%    MPKI:0.00
PC:17310     Total:13      MisBP:0   MisRate:0.00%    MPKI:0.00
PC:17314     Total:13      MisBP:0   MisRate:0.00%    MPKI:0.00
PC:17320     Total:169      MisBP:0   MisRate:0.00%    MPKI:0.00
PC:1732a     Total:170      MisBP:0   MisRate:0.00%    MPKI:0.00
PC:1732e     Total:170      MisBP:0   MisRate:0.00%    MPKI:0.00
PC:17338     Total:1868      MisBP:0   MisRate:0.00%    MPKI:0.00
PC:1733e     Total:205      MisBP:0   MisRate:0.00%    MPKI:0.00
PC:1852a     Total:2      MisBP:0   MisRate:0.00%    MPKI:0.00
PC:17376     Total:1951      MisBP:0   MisRate:0.00%    MPKI:0.00
PC:1737c     Total:1905      MisBP:0   MisRate:0.00%    MPKI:0.00
PC:17380     Total:1734      MisBP:0   MisRate:0.00%    MPKI:0.00
PC:17382     Total:1734      MisBP:0   MisRate:0.00%    MPKI:0.00
PC:17386     Total:1734      MisBP:0   MisRate:0.00%    MPKI:0.00
PC:17388     Total:1734      MisBP:0   MisRate:0.00%    MPKI:0.00
PC:17390     Total:1871      MisBP:0   MisRate:0.00%    MPKI:0.00
PC:17394     Total:1871      MisBP:0   MisRate:0.00%    MPKI:0.00
PC:1739a     Total:175      MisBP:0   MisRate:0.00%    MPKI:0.00
PC:1739c     Total:175      MisBP:0   MisRate:0.00%    MPKI:0.00
PC:173a0     Total:175      MisBP:0   MisRate:0.00%    MPKI:0.00
PC:173a6     Total:18      MisBP:0   MisRate:0.00%    MPKI:0.00
PC:173a8     Total:18      MisBP:0   MisRate:0.00%    MPKI:0.00
PC:1851a     Total:2      MisBP:0   MisRate:0.00%    MPKI:0.00
PC:172d0     Total:139      MisBP:0   MisRate:0.00%    MPKI:0.00
PC:172d2     Total:139      MisBP:0   MisRate:0.00%    MPKI:0.00
PC:172d8     Total:147      MisBP:0   MisRate:0.00%    MPKI:0.00
PC:172dc     Total:147      MisBP:0   MisRate:0.00%    MPKI:0.00
PC:172de     Total:147      MisBP:0   MisRate:0.00%    MPKI:0.00
PC:172e2     Total:147      MisBP:0   MisRate:0.00%    MPKI:0.00
PC:172e6     Total:147      MisBP:0   MisRate:0.00%    MPKI:0.00
PC:172ea     Total:139      MisBP:0   MisRate:0.00%    MPKI:0.00
PC:172f4     Total:139      MisBP:0   MisRate:0.00%    MPKI:0.00
PC:172f8     Total:139      MisBP:0   MisRate:0.00%    MPKI:0.00
PC:172ae     Total:10      MisBP:0   MisRate:0.00%    MPKI:0.00
PC:172b0     Total:10      MisBP:0   MisRate:0.00%    MPKI:0.00
PC:1359e     Total:166315      MisBP:0   MisRate:0.00%    MPKI:0.00
PC:173aa     Total:18      MisBP:0   MisRate:0.00%    MPKI:0.00
PC:172b2     Total:10      MisBP:0   MisRate:0.00%    MPKI:0.00
PC:36204     Total:7      MisBP:0   MisRate:0.00%    MPKI:0.00
PC:135a0     Total:166314      MisBP:0   MisRate:0.00%    MPKI:0.00
PC:1851c     Total:2      MisBP:0   MisRate:0.00%    MPKI:0.00
PC:172b6     Total:10      MisBP:0   MisRate:0.00%    MPKI:0.00
PC:172ba     Total:10      MisBP:0   MisRate:0.00%    MPKI:0.00
PC:135a8     Total:732865      MisBP:0   MisRate:0.00%    MPKI:0.00
PC:18524     Total:2      MisBP:0   MisRate:0.00%    MPKI:0.00
PC:172bc     Total:10      MisBP:0   MisRate:0.00%    MPKI:0.00
PC:3620e     Total:7      MisBP:0   MisRate:0.00%    MPKI:0.00
PC:18526     Total:2      MisBP:0   MisRate:0.00%    MPKI:0.00
PC:172c0     Total:10      MisBP:0   MisRate:0.00%    MPKI:0.00
PC:135ae     Total:773418      MisBP:0   MisRate:0.00%    MPKI:0.00
PC:173fe     Total:6      MisBP:0   MisRate:0.00%    MPKI:0.00
PC:173dc     Total:20      MisBP:0   MisRate:0.00%    MPKI:0.00
PC:173de     Total:20      MisBP:0   MisRate:0.00%    MPKI:0.00
PC:173e0     Total:20      MisBP:0   MisRate:0.00%    MPKI:0.00
PC:173e4     Total:20      MisBP:0   MisRate:0.00%    MPKI:0.00
PC:173e6     Total:6      MisBP:0   MisRate:0.00%    MPKI:0.00
PC:173ea     Total:6      MisBP:0   MisRate:0.00%    MPKI:0.00
PC:173ec     Total:6      MisBP:0   MisRate:0.00%    MPKI:0.00
PC:173ee     Total:6      MisBP:0   MisRate:0.00%    MPKI:0.00
PC:173f0     Total:6      MisBP:0   MisRate:0.00%    MPKI:0.00
PC:173f4     Total:6      MisBP:0   MisRate:0.00%    MPKI:0.00
PC:173f6     Total:6      MisBP:0   MisRate:0.00%    MPKI:0.00
PC:173fa     Total:6      MisBP:0   MisRate:0.00%    MPKI:0.00
PC:173fc     Total:6      MisBP:0   MisRate:0.00%    MPKI:0.00
PC:173da     Total:20      MisBP:0   MisRate:0.00%    MPKI:0.00
PC:17340     Total:202      MisBP:0   MisRate:0.00%    MPKI:0.00
PC:17342     Total:202      MisBP:0   MisRate:0.00%    MPKI:0.00
PC:17344     Total:202      MisBP:0   MisRate:0.00%    MPKI:0.00
PC:17348     Total:202      MisBP:0   MisRate:0.00%    MPKI:0.00
PC:1734a     Total:205      MisBP:0   MisRate:0.00%    MPKI:0.00
PC:1734e     Total:205      MisBP:0   MisRate:0.00%    MPKI:0.00
PC:17350     Total:205      MisBP:0   MisRate:0.00%    MPKI:0.00
PC:17352     Total:205      MisBP:0   MisRate:0.00%    MPKI:0.00
PC:17354     Total:203      MisBP:0   MisRate:0.00%    MPKI:0.00
PC:17356     Total:203      MisBP:0   MisRate:0.00%    MPKI:0.00
PC:1735a     Total:203      MisBP:0   MisRate:0.00%    MPKI:0.00
PC:1735e     Total:203      MisBP:0   MisRate:0.00%    MPKI:0.00
PC:17360     Total:201      MisBP:0   MisRate:0.00%    MPKI:0.00
PC:36206     Total:7      MisBP:0   MisRate:0.00%    MPKI:0.00
PC:173ae     Total:18      MisBP:0   MisRate:0.00%    MPKI:0.00
PC:173b0     Total:18      MisBP:0   MisRate:0.00%    MPKI:0.00
PC:173b4     Total:3476      MisBP:0   MisRate:0.00%    MPKI:0.00
PC:173b8     Total:1738      MisBP:0   MisRate:0.00%    MPKI:0.00
PC:173be     Total:1037      MisBP:0   MisRate:0.00%    MPKI:0.00
PC:361ea     Total:176      MisBP:0   MisRate:0.00%    MPKI:0.00
PC:13586     Total:703      MisBP:0   MisRate:0.00%    MPKI:0.00
PC:18502     Total:1006      MisBP:0   MisRate:0.00%    MPKI:0.00
PC:361f4     Total:170      MisBP:0   MisRate:0.00%    MPKI:0.00
PC:1850c     Total:1006      MisBP:0   MisRate:0.00%    MPKI:0.00
PC:361fa     Total:165      MisBP:0   MisRate:0.00%    MPKI:0.00
PC:13596     Total:166583      MisBP:0   MisRate:0.00%    MPKI:0.00
PC:18512     Total:397934      MisBP:0   MisRate:0.00%    MPKI:0.00
PC:17b54     Total:8819      MisBP:0   MisRate:0.00%    MPKI:0.00
PC:1851e     Total:2      MisBP:0   MisRate:0.00%    MPKI:0.00
PC:3620a     Total:7      MisBP:0   MisRate:0.00%    MPKI:0.00
PC:135a6     Total:166038      MisBP:0   MisRate:0.00%    MPKI:0.00
PC:18522     Total:2      MisBP:0   MisRate:0.00%    MPKI:0.00
PC:36210     Total:7      MisBP:0   MisRate:0.00%    MPKI:0.00
PC:18528     Total:2      MisBP:0   MisRate:0.00%    MPKI:0.00
PC:173c0     Total:977      MisBP:0   MisRate:0.00%    MPKI:0.00
PC:173c4     Total:977      MisBP:0   MisRate:0.00%    MPKI:0.00
PC:173c8     Total:1737      MisBP:0   MisRate:0.00%    MPKI:0.00
PC:173ca     Total:1737      MisBP:0   MisRate:0.00%    MPKI:0.00
PC:173d0     Total:24      MisBP:0   MisRate:0.00%    MPKI:0.00
PC:173d2     Total:24      MisBP:0   MisRate:0.00%    MPKI:0.00
PC:173d8     Total:20      MisBP:0   MisRate:0.00%    MPKI:0.00
PC:16f26     Total:10      MisBP:0   MisRate:0.00%    MPKI:0.00
PC:16e1e     Total:1343      MisBP:0   MisRate:0.00%    MPKI:0.00
PC:1e55c     Total:31      MisBP:0   MisRate:0.00%    MPKI:0.00
PC:16e22     Total:1343      MisBP:0   MisRate:0.00%    MPKI:0.00
PC:1e564     Total:31      MisBP:0   MisRate:0.00%    MPKI:0.00
PC:1466c     Total:554      MisBP:0   MisRate:0.00%    MPKI:0.00
PC:16e2a     Total:1222      MisBP:0   MisRate:0.00%    MPKI:0.00
PC:1e568     Total:31      MisBP:0   MisRate:0.00%    MPKI:0.00
PC:14670     Total:554      MisBP:0   MisRate:0.00%    MPKI:0.00
PC:16e2e     Total:1222      MisBP:0   MisRate:0.00%    MPKI:0.00
PC:17480     Total:26      MisBP:0   MisRate:0.00%    MPKI:0.00
PC:17482     Total:26      MisBP:0   MisRate:0.00%    MPKI:0.00
PC:14758     Total:94      MisBP:0   MisRate:0.00%    MPKI:0.00
PC:16f16     Total:10      MisBP:0   MisRate:0.00%    MPKI:0.00
PC:1e558     Total:31      MisBP:0   MisRate:0.00%    MPKI:0.00
PC:13f2c     Total:52206      MisBP:0   MisRate:0.00%    MPKI:0.00
PC:18ea8     Total:63      MisBP:0   MisRate:0.00%    MPKI:0.00
PC:18eb4     Total:506      MisBP:0   MisRate:0.00%    MPKI:0.00
PC:18ec8     Total:66316      MisBP:0   MisRate:0.00%    MPKI:0.00
PC:13f52     Total:761      MisBP:0   MisRate:0.00%    MPKI:0.00
PC:18ece     Total:66316      MisBP:0   MisRate:0.00%    MPKI:0.00
PC:13f58     Total:760      MisBP:0   MisRate:0.00%    MPKI:0.00
PC:18ed4     Total:543      MisBP:0   MisRate:0.00%    MPKI:0.00
PC:18ed8     Total:85      MisBP:0   MisRate:0.00%    MPKI:0.00
PC:13f68     Total:1      MisBP:0   MisRate:0.00%    MPKI:0.00
PC:18ee4     Total:1281      MisBP:0   MisRate:0.00%    MPKI:0.00
PC:18eee     Total:83      MisBP:0   MisRate:0.00%    MPKI:0.00
PC:18ef4     Total:4984      MisBP:0   MisRate:0.00%    MPKI:0.00
PC:1e5a0     Total:5      MisBP:0   MisRate:0.00%    MPKI:0.00
PC:16e46     Total:12921      MisBP:0   MisRate:0.00%    MPKI:0.00
PC:1e588     Total:21      MisBP:0   MisRate:0.00%    MPKI:0.00
PC:16e4e     Total:12921      MisBP:0   MisRate:0.00%    MPKI:0.00
PC:1e58c     Total:21      MisBP:0   MisRate:0.00%    MPKI:0.00
PC:16e52     Total:11301      MisBP:0   MisRate:0.00%    MPKI:0.00
PC:1e594     Total:13      MisBP:0   MisRate:0.00%    MPKI:0.00
PC:1469c     Total:825      MisBP:0   MisRate:0.00%    MPKI:0.00
PC:16e5a     Total:11048      MisBP:0   MisRate:0.00%    MPKI:0.00
PC:1e598     Total:12      MisBP:0   MisRate:0.00%    MPKI:0.00
PC:146a0     Total:2121      MisBP:0   MisRate:0.00%    MPKI:0.00
PC:16e5e     Total:11054      MisBP:0   MisRate:0.00%    MPKI:0.00
PC:1e59c     Total:12      MisBP:0   MisRate:0.00%    MPKI:0.00
PC:16e62     Total:11054      MisBP:0   MisRate:0.00%    MPKI:0.00
PC:18f2a     Total:101      MisBP:0   MisRate:0.00%    MPKI:0.00
PC:146a8     Total:439      MisBP:0   MisRate:0.00%    MPKI:0.00
PC:16e66     Total:11053      MisBP:0   MisRate:0.00%    MPKI:0.00
PC:1e5a4     Total:5      MisBP:0   MisRate:0.00%    MPKI:0.00
PC:146ac     Total:1274      MisBP:0   MisRate:0.00%    MPKI:0.00
PC:16e6a     Total:11053      MisBP:0   MisRate:0.00%    MPKI:0.00
PC:16dfe     Total:1354      MisBP:0   MisRate:0.00%    MPKI:0.00
PC:1e540     Total:34      MisBP:0   MisRate:0.00%    MPKI:0.00
PC:16e06     Total:1359      MisBP:0   MisRate:0.00%    MPKI:0.00
PC:16e0e     Total:1369      MisBP:0   MisRate:0.00%    MPKI:0.00
PC:1e54c     Total:33      MisBP:0   MisRate:0.00%    MPKI:0.00
PC:16e12     Total:1371      MisBP:0   MisRate:0.00%    MPKI:0.00
PC:16e16     Total:1343      MisBP:0   MisRate:0.00%    MPKI:0.00
PC:16e1a     Total:1343      MisBP:0   MisRate:0.00%    MPKI:0.00
PC:16ff2     Total:8      MisBP:0   MisRate:0.00%    MPKI:0.00
PC:16fb6     Total:38      MisBP:0   MisRate:0.00%    MPKI:0.00
PC:16fba     Total:38      MisBP:0   MisRate:0.00%    MPKI:0.00
PC:16fbe     Total:38      MisBP:0   MisRate:0.00%    MPKI:0.00
PC:16fc2     Total:31      MisBP:0   MisRate:0.00%    MPKI:0.00
PC:16fc6     Total:31      MisBP:0   MisRate:0.00%    MPKI:0.00
PC:16fca     Total:31      MisBP:0   MisRate:0.00%    MPKI:0.00
PC:16fce     Total:36      MisBP:0   MisRate:0.00%    MPKI:0.00
PC:16fd6     Total:9      MisBP:0   MisRate:0.00%    MPKI:0.00
PC:16fda     Total:9      MisBP:0   MisRate:0.00%    MPKI:0.00
PC:16fde     Total:9      MisBP:0   MisRate:0.00%    MPKI:0.00
PC:16fe6     Total:8      MisBP:0   MisRate:0.00%    MPKI:0.00
PC:16fea     Total:8      MisBP:0   MisRate:0.00%    MPKI:0.00
PC:16fee     Total:8      MisBP:0   MisRate:0.00%    MPKI:0.00
PC:16faa     Total:38      MisBP:0   MisRate:0.00%    MPKI:0.00
PC:16ff6     Total:8      MisBP:0   MisRate:0.00%    MPKI:0.00
PC:16ffa     Total:8      MisBP:0   MisRate:0.00%    MPKI:0.00
PC:17012     Total:24      MisBP:0   MisRate:0.00%    MPKI:0.00
PC:17016     Total:24      MisBP:0   MisRate:0.00%    MPKI:0.00
PC:1701a     Total:21      MisBP:0   MisRate:0.00%    MPKI:0.00
PC:1701e     Total:21      MisBP:0   MisRate:0.00%    MPKI:0.00
PC:17022     Total:20      MisBP:0   MisRate:0.00%    MPKI:0.00
PC:17026     Total:20      MisBP:0   MisRate:0.00%    MPKI:0.00
PC:1702e     Total:20      MisBP:0   MisRate:0.00%    MPKI:0.00
PC:17036     Total:16      MisBP:0   MisRate:0.00%    MPKI:0.00
PC:16d26     Total:74      MisBP:0   MisRate:0.00%    MPKI:0.00
PC:16d76     Total:70      MisBP:0   MisRate:0.00%    MPKI:0.00
PC:16d7e     Total:69      MisBP:0   MisRate:0.00%    MPKI:0.00
PC:16f56     Total:2196      MisBP:0   MisRate:0.00%    MPKI:0.00
PC:18f30     Total:101      MisBP:0   MisRate:0.00%    MPKI:0.00
PC:18f3e     Total:1122      MisBP:0   MisRate:0.00%    MPKI:0.00
PC:18f66     Total:97      MisBP:0   MisRate:0.00%    MPKI:0.00
[...]
PC:16f10     Total:10      MisBP:0   MisRate:0.00%    MPKI:0.00
PC:295ac     Total:7844      MisBP:0   MisRate:0.00%    MPKI:0.00
PC:1474e     Total:94      MisBP:0   MisRate:0.00%    MPKI:0.00
PC:17bda     Total:28392      MisBP:0   MisRate:0.00%    MPKI:0.00
PC:10ed4     Total:91      MisBP:0   MisRate:0.00%    MPKI:0.00
PC:1860e     Total:525469      MisBP:0   MisRate:0.00%    MPKI:0.00
PC:13692     Total:13      MisBP:0   MisRate:0.00%    MPKI:0.00
PC:111be     Total:945      MisBP:0   MisRate:0.00%    MPKI:0.00
PC:146ce     Total:155      MisBP:0   MisRate:0.00%    MPKI:0.00
PC:17bde     Total:27103      MisBP:0   MisRate:0.00%    MPKI:0.00
PC:16a8a     Total:125      MisBP:0   MisRate:0.00%    MPKI:0.00
PC:2952c     Total:7866      MisBP:0   MisRate:0.00%    MPKI:0.00
PC:17cf4     Total:1      MisBP:0   MisRate:0.00%    MPKI:0.00
PC:18f5e     Total:97      MisBP:0   MisRate:0.00%    MPKI:0.00
PC:1368e     Total:16      MisBP:0   MisRate:0.00%    MPKI:0.00
PC:2946c     Total:911      MisBP:0   MisRate:0.00%    MPKI:0.00
PC:13694     Total:13      MisBP:0   MisRate:0.00%    MPKI:0.00
PC:16a86     Total:125      MisBP:0   MisRate:0.00%    MPKI:0.00
PC:17cf0     Total:1      MisBP:0   MisRate:0.00%    MPKI:0.00
PC:16d9e     Total:426      MisBP:0   MisRate:0.00%    MPKI:0.00
PC:145e0     Total:561      MisBP:0   MisRate:0.00%    MPKI:0.00
PC:18606     Total:200019      MisBP:0   MisRate:0.00%    MPKI:0.00
PC:1368a     Total:16      MisBP:0   MisRate:0.00%    MPKI:0.00
PC:29468     Total:911      MisBP:0   MisRate:0.00%    MPKI:0.00
PC:17bd4     Total:28466      MisBP:0   MisRate:0.00%    MPKI:0.00
PC:13660     Total:2807      MisBP:0   MisRate:0.00%    MPKI:0.00
PC:16a80     Total:125      MisBP:0   MisRate:0.00%    MPKI:0.00
PC:17cea     Total:12      MisBP:0   MisRate:0.00%    MPKI:0.00
PC:111c4     Total:944      MisBP:0   MisRate:0.00%    MPKI:0.00
PC:1369e     Total:13      MisBP:0   MisRate:0.00%    MPKI:0.00
PC:2947c     Total:361      MisBP:0   MisRate:0.00%    MPKI:0.00
PC:111ca     Total:956      MisBP:0   MisRate:0.00%    MPKI:0.00
PC:17bec     Total:26646      MisBP:0   MisRate:0.00%    MPKI:0.00
PC:10ede     Total:130      MisBP:0   MisRate:0.00%    MPKI:0.00
PC:1369c     Total:13      MisBP:0   MisRate:0.00%    MPKI:0.00
PC:111c8     Total:964      MisBP:0   MisRate:0.00%    MPKI:0.00
PC:17be8     Total:26882      MisBP:0   MisRate:0.00%    MPKI:0.00
PC:16a94     Total:125      MisBP:0   MisRate:0.00%    MPKI:0.00
PC:17cfe     Total:1      MisBP:0   MisRate:0.00%    MPKI:0.00
PC:18f68     Total:94      MisBP:0   MisRate:0.00%    MPKI:0.00
PC:13698     Total:13      MisBP:0   MisRate:0.00%    MPKI:0.00
PC:14760     Total:6      MisBP:0   MisRate:0.00%    MPKI:0.00
PC:10ed8     Total:5      MisBP:0   MisRate:0.00%    MPKI:0.00
PC:18612     Total:524925      MisBP:0   MisRate:0.00%    MPKI:0.00
PC:13696     Total:13      MisBP:0   MisRate:0.00%    MPKI:0.00
PC:29474     Total:362      MisBP:0   MisRate:0.00%    MPKI:0.00
PC:111c2     Total:945      MisBP:0   MisRate:0.00%    MPKI:0.00
PC:16e8c     Total:35      MisBP:0   MisRate:0.00%    MPKI:0.00
PC:17be4     Total:27072      MisBP:0   MisRate:0.00%    MPKI:0.00
PC:16a90     Total:125      MisBP:0   MisRate:0.00%    MPKI:0.00
PC:17cfa     Total:1      MisBP:0   MisRate:0.00%    MPKI:0.00
PC:18f64     Total:97      MisBP:0   MisRate:0.00%    MPKI:0.00
PC:18610     Total:525270      MisBP:0   MisRate:0.00%    MPKI:0.00
PC:16d00     Total:51      MisBP:0   MisRate:0.00%    MPKI:0.00
PC:16d0c     Total:52      MisBP:0   MisRate:0.00%    MPKI:0.00
PC:293a8     Total:396      MisBP:0   MisRate:0.00%    MPKI:0.00
PC:3622e     Total:9      MisBP:0   MisRate:0.00%    MPKI:0.00
PC:135ca     Total:1124      MisBP:0   MisRate:0.00%    MPKI:0.00
PC:16d08     Total:51      MisBP:0   MisRate:0.00%    MPKI:0.00
PC:293a4     Total:199      MisBP:0   MisRate:0.00%    MPKI:0.00
PC:3622a     Total:7      MisBP:0   MisRate:0.00%    MPKI:0.00
PC:13ef2     Total:54771      MisBP:0   MisRate:0.00%    MPKI:0.00
PC:16d04     Total:51      MisBP:0   MisRate:0.00%    MPKI:0.00
PC:293a0     Total:398      MisBP:0   MisRate:0.00%    MPKI:0.00
PC:18f18     Total:115      MisBP:0   MisRate:0.00%    MPKI:0.00
PC:36226     Total:7      MisBP:0   MisRate:0.00%    MPKI:0.00
PC:135c2     Total:756540      MisBP:0   MisRate:0.00%    MPKI:0.00
PC:293ac     Total:197      MisBP:0   MisRate:0.00%    MPKI:0.00
PC:17cae     Total:33      MisBP:0   MisRate:0.00%    MPKI:0.00
PC:2939c     Total:199      MisBP:0   MisRate:0.00%    MPKI:0.00
PC:29398     Total:398      MisBP:0   MisRate:0.00%    MPKI:0.00
PC:29394     Total:411      MisBP:0   MisRate:0.00%    MPKI:0.00
PC:3621a     Total:7      MisBP:0   MisRate:0.00%    MPKI:0.00
PC:137ec     Total:6      MisBP:0   MisRate:0.00%    MPKI:0.00
PC:135b6     Total:773316      MisBP:0   MisRate:0.00%    MPKI:0.00
PC:29390     Total:210      MisBP:0   MisRate:0.00%    MPKI:0.00
PC:36216     Total:7      MisBP:0   MisRate:0.00%    MPKI:0.00
PC:1852e     Total:1      MisBP:0   MisRate:0.00%    MPKI:0.00
PC:135b2     Total:1546705      MisBP:0   MisRate:0.00%    MPKI:0.00
PC:2938c     Total:186      MisBP:0   MisRate:0.00%    MPKI:0.00
PC:29388     Total:189      MisBP:0   MisRate:0.00%    MPKI:0.00
PC:10ee8     Total:130      MisBP:0   MisRate:0.00%    MPKI:0.00
PC:136b2     Total:11      MisBP:0   MisRate:0.00%    MPKI:0.00
PC:185be     Total:189007      MisBP:0   MisRate:0.00%    MPKI:0.00
PC:16df0     Total:14194      MisBP:0   MisRate:0.00%    MPKI:0.00
PC:2948c     Total:317      MisBP:0   MisRate:0.00%    MPKI:0.00
PC:111da     Total:671      MisBP:0   MisRate:0.00%    MPKI:0.00
PC:16dec     Total:14249      MisBP:0   MisRate:0.00%    MPKI:0.00
PC:29488     Total:317      MisBP:0   MisRate:0.00%    MPKI:0.00
PC:17b92     Total:34564      MisBP:0   MisRate:0.00%    MPKI:0.00
PC:10eec     Total:185      MisBP:0   MisRate:0.00%    MPKI:0.00
PC:136aa     Total:12      MisBP:0   MisRate:0.00%    MPKI:0.00
PC:111d6     Total:671      MisBP:0   MisRate:0.00%    MPKI:0.00
PC:16de8     Total:3006      MisBP:0   MisRate:0.00%    MPKI:0.00
PC:29484     Total:320      MisBP:0   MisRate:0.00%    MPKI:0.00
PC:18532     Total:1      MisBP:0   MisRate:0.00%    MPKI:0.00
PC:136a6     Total:12      MisBP:0   MisRate:0.00%    MPKI:0.00
PC:111d2     Total:672      MisBP:0   MisRate:0.00%    MPKI:0.00
PC:16de4     Total:3007      MisBP:0   MisRate:0.00%    MPKI:0.00
PC:16d86     Total:4040      MisBP:0   MisRate:0.00%    MPKI:0.00
PC:29480     Total:320      MisBP:0   MisRate:0.00%    MPKI:0.00
PC:13648     Total:70      MisBP:0   MisRate:0.00%    MPKI:0.00
PC:10ee4     Total:130      MisBP:0   MisRate:0.00%    MPKI:0.00
PC:1861e     Total:520305      MisBP:0   MisRate:0.00%    MPKI:0.00
PC:136a2     Total:13      MisBP:0   MisRate:0.00%    MPKI:0.00
PC:111ce     Total:682      MisBP:0   MisRate:0.00%    MPKI:0.00
PC:293b0     Total:196      MisBP:0   MisRate:0.00%    MPKI:0.00
PC:16d10     Total:52      MisBP:0   MisRate:0.00%    MPKI:0.00
PC:176c2     Total:21      MisBP:0   MisRate:0.00%    MPKI:0.00
PC:361be     Total:251      MisBP:0   MisRate:0.00%    MPKI:0.00
PC:184d6     Total:481394      MisBP:0   MisRate:0.00%    MPKI:0.00
PC:135e0     Total:1109      MisBP:0   MisRate:0.00%    MPKI:0.00
PC:1355a     Total:845      MisBP:0   MisRate:0.00%    MPKI:0.00
PC:295dc     Total:7816      MisBP:0   MisRate:0.00%    MPKI:0.00
PC:16f3c     Total:13      MisBP:0   MisRate:0.00%    MPKI:0.00
PC:29384     Total:192      MisBP:0   MisRate:0.00%    MPKI:0.00
PC:36244     Total:4      MisBP:0   MisRate:0.00%    MPKI:0.00
PC:16f3a     Total:13      MisBP:0   MisRate:0.00%    MPKI:0.00
PC:295d8     Total:7816      MisBP:0   MisRate:0.00%    MPKI:0.00
PC:1477c     Total:6      MisBP:0   MisRate:0.00%    MPKI:0.00
PC:295d4     Total:7816      MisBP:0   MisRate:0.00%    MPKI:0.00
PC:11036     Total:1081      MisBP:0   MisRate:0.00%    MPKI:0.00
PC:137f4     Total:2      MisBP:0   MisRate:0.00%    MPKI:0.00
PC:16f32     Total:13      MisBP:0   MisRate:0.00%    MPKI:0.00
PC:295d0     Total:7818      MisBP:0   MisRate:0.00%    MPKI:0.00
PC:14772     Total:6      MisBP:0   MisRate:0.00%    MPKI:0.00
PC:14770     Total:6      MisBP:0   MisRate:0.00%    MPKI:0.00
PC:16f2e     Total:1355      MisBP:0   MisRate:0.00%    MPKI:0.00
PC:2951c     Total:7887      MisBP:0   MisRate:0.00%    MPKI:0.00
PC:295cc     Total:7822      MisBP:0   MisRate:0.00%    MPKI:0.00
PC:13ee2     Total:571      MisBP:0   MisRate:0.00%    MPKI:0.00
PC:16d1e     Total:69      MisBP:0   MisRate:0.00%    MPKI:0.00
PC:1356a     Total:845      MisBP:0   MisRate:0.00%    MPKI:0.00
PC:16a44     Total:138      MisBP:0   MisRate:0.00%    MPKI:0.00
PC:29368     Total:274      MisBP:0   MisRate:0.00%    MPKI:0.00
PC:361ce     Total:251      MisBP:0   MisRate:0.00%    MPKI:0.00
PC:29380     Total:194      MisBP:0   MisRate:0.00%    MPKI:0.00
PC:29708     Total:573      MisBP:0   MisRate:0.00%    MPKI:0.00
PC:17b88     Total:34866      MisBP:0   MisRate:0.00%    MPKI:0.00
PC:29364     Total:274      MisBP:0   MisRate:0.00%    MPKI:0.00
PC:18882     Total:1      MisBP:1   MisRate:100.00%    MPKI:0.00
PC:17b2e     Total:9759      MisBP:1   MisRate:0.01%    MPKI:0.00
PC:137c4     Total:906      MisBP:1   MisRate:0.11%    MPKI:0.00
PC:178f4     Total:20      MisBP:1   MisRate:5.00%    MPKI:0.00
PC:1788e     Total:21      MisBP:1   MisRate:4.76%    MPKI:0.00
PC:1354a     Total:9      MisBP:1   MisRate:11.11%    MPKI:0.00
PC:13bfe     Total:18164      MisBP:1   MisRate:0.01%    MPKI:0.00
PC:17806     Total:10      MisBP:1   MisRate:10.00%    MPKI:0.00
PC:17440     Total:17      MisBP:2   MisRate:11.76%    MPKI:0.00
PC:17a1c     Total:23      MisBP:2   MisRate:8.70%    MPKI:0.00
PC:14622     Total:8679      MisBP:2   MisRate:0.02%    MPKI:0.00
PC:1884e     Total:4      MisBP:2   MisRate:50.00%    MPKI:0.00
PC:16c6c     Total:22      MisBP:2   MisRate:9.09%    MPKI:0.00
PC:18870     Total:5      MisBP:2   MisRate:40.00%    MPKI:0.00
PC:16d7c     Total:70      MisBP:3   MisRate:4.29%    MPKI:0.00
PC:179c8     Total:25      MisBP:3   MisRate:12.00%    MPKI:0.00
PC:173d4     Total:24      MisBP:3   MisRate:12.50%    MPKI:0.00
PC:17426     Total:24      MisBP:3   MisRate:12.50%    MPKI:0.00
PC:17a30     Total:19      MisBP:4   MisRate:21.05%    MPKI:0.00
PC:186ea     Total:1551      MisBP:4   MisRate:0.26%    MPKI:0.00
PC:29470     Total:911      MisBP:4   MisRate:0.44%    MPKI:0.00
PC:29404     Total:699      MisBP:4   MisRate:0.57%    MPKI:0.00
PC:12b78     Total:586      MisBP:4   MisRate:0.68%    MPKI:0.00
PC:178e0     Total:23      MisBP:5   MisRate:21.74%    MPKI:0.00
PC:17018     Total:24      MisBP:5   MisRate:20.83%    MPKI:0.00
PC:10188     Total:90      MisBP:5   MisRate:5.56%    MPKI:0.00
PC:12b66     Total:1253      MisBP:6   MisRate:0.48%    MPKI:0.00
PC:16efe     Total:48      MisBP:6   MisRate:12.50%    MPKI:0.00
PC:1358e     Total:166639      MisBP:7   MisRate:0.00%    MPKI:0.00
PC:186fe     Total:1699      MisBP:7   MisRate:0.41%    MPKI:0.00
PC:13644     Total:76      MisBP:7   MisRate:9.21%    MPKI:0.00
PC:16e7c     Total:201      MisBP:7   MisRate:3.48%    MPKI:0.00
PC:16c52     Total:30      MisBP:8   MisRate:26.67%    MPKI:0.00
PC:1776e     Total:20      MisBP:8   MisRate:40.00%    MPKI:0.00
PC:16d28     Total:74      MisBP:8   MisRate:10.81%    MPKI:0.00
PC:172d6     Total:139      MisBP:10   MisRate:7.19%    MPKI:0.00
PC:16f30     Total:1353      MisBP:10   MisRate:0.74%    MPKI:0.00
PC:1874e     Total:90      MisBP:10   MisRate:11.11%    MPKI:0.00
PC:1730e     Total:1358      MisBP:10   MisRate:0.74%    MPKI:0.00
PC:172fc     Total:139      MisBP:10   MisRate:7.19%    MPKI:0.00
PC:29354     Total:270      MisBP:10   MisRate:3.70%    MPKI:0.00
PC:17aea     Total:33      MisBP:10   MisRate:30.30%    MPKI:0.00
PC:13544     Total:198      MisBP:10   MisRate:5.05%    MPKI:0.00
PC:1362e     Total:138      MisBP:11   MisRate:7.97%    MPKI:0.00
PC:13672     Total:981      MisBP:11   MisRate:1.12%    MPKI:0.00
PC:17946     Total:29      MisBP:12   MisRate:41.38%    MPKI:0.00
PC:171dc     Total:24      MisBP:12   MisRate:50.00%    MPKI:0.00
PC:17174     Total:28      MisBP:12   MisRate:42.86%    MPKI:0.00
PC:173a4     Total:175      MisBP:13   MisRate:7.43%    MPKI:0.00
PC:176fe     Total:28      MisBP:13   MisRate:46.43%    MPKI:0.00
PC:177dc     Total:33      MisBP:14   MisRate:42.42%    MPKI:0.00
PC:179b4     Total:33      MisBP:14   MisRate:42.42%    MPKI:0.00
PC:17244     Total:35      MisBP:15   MisRate:42.86%    MPKI:0.00
PC:17cc8     Total:42      MisBP:16   MisRate:38.10%    MPKI:0.00
PC:10158     Total:3016      MisBP:17   MisRate:0.56%    MPKI:0.00
PC:173ce     Total:1737      MisBP:17   MisRate:0.98%    MPKI:0.00
PC:1787a     Total:32      MisBP:18   MisRate:56.25%    MPKI:0.00
PC:186d0     Total:6366      MisBP:19   MisRate:0.30%    MPKI:0.00
PC:297a0     Total:166      MisBP:21   MisRate:12.65%    MPKI:0.00
PC:17490     Total:157      MisBP:24   MisRate:15.29%    MPKI:0.00
PC:13668     Total:2806      MisBP:25   MisRate:0.89%    MPKI:0.00
PC:16f68     Total:158      MisBP:28   MisRate:17.72%    MPKI:0.00
PC:17658     Total:227637      MisBP:32   MisRate:0.01%    MPKI:0.00
PC:14700     Total:151      MisBP:33   MisRate:21.85%    MPKI:0.00
PC:29818     Total:177      MisBP:33   MisRate:18.64%    MPKI:0.00
PC:18a5e     Total:40      MisBP:33   MisRate:82.50%    MPKI:0.00
PC:1353e     Total:780      MisBP:34   MisRate:4.36%    MPKI:0.00
PC:18f7c     Total:696      MisBP:40   MisRate:5.75%    MPKI:0.00
PC:14606     Total:556      MisBP:40   MisRate:7.19%    MPKI:0.00
PC:13592     Total:166623      MisBP:41   MisRate:0.02%    MPKI:0.00
PC:18a36     Total:2000532      MisBP:41   MisRate:0.00%    MPKI:0.00
PC:1872a     Total:47149      MisBP:42   MisRate:0.09%    MPKI:0.00
PC:293c4     Total:798      MisBP:46   MisRate:5.76%    MPKI:0.00
PC:18f04     Total:4933      MisBP:46   MisRate:0.93%    MPKI:0.00
PC:146b6     Total:947      MisBP:46   MisRate:4.86%    MPKI:0.00
PC:29348     Total:880      MisBP:51   MisRate:5.80%    MPKI:0.00
PC:187a2     Total:53973      MisBP:52   MisRate:0.10%    MPKI:0.00
PC:146c2     Total:305      MisBP:53   MisRate:17.38%    MPKI:0.00
PC:29654     Total:7743      MisBP:60   MisRate:0.77%    MPKI:0.00
PC:13614     Total:148      MisBP:61   MisRate:41.22%    MPKI:0.00
PC:16cc0     Total:285845      MisBP:65   MisRate:0.02%    MPKI:0.00
PC:13bae     Total:3076446      MisBP:66   MisRate:0.00%    MPKI:0.00
PC:16ed0     Total:4716      MisBP:68   MisRate:1.44%    MPKI:0.00
PC:18ed6     Total:460      MisBP:69   MisRate:15.00%    MPKI:0.00
PC:18f5a     Total:553      MisBP:72   MisRate:13.02%    MPKI:0.00
PC:1360c     Total:1030      MisBP:73   MisRate:7.09%    MPKI:0.00
PC:18ee6     Total:1281      MisBP:78   MisRate:6.09%    MPKI:0.00
PC:293d0     Total:666      MisBP:80   MisRate:12.01%    MPKI:0.00
PC:111de     Total:660      MisBP:82   MisRate:12.42%    MPKI:0.00
PC:18f26     Total:1531      MisBP:83   MisRate:5.42%    MPKI:0.00
PC:10ecc     Total:141      MisBP:89   MisRate:63.12%    MPKI:0.00
PC:16aa0     Total:124      MisBP:92   MisRate:74.19%    MPKI:0.00
PC:18f16     Total:1095      MisBP:93   MisRate:8.49%    MPKI:0.00
PC:16e70     Total:10789      MisBP:100   MisRate:0.93%    MPKI:0.00
PC:16f58     Total:2196      MisBP:106   MisRate:4.83%    MPKI:0.00
PC:14708     Total:147      MisBP:107   MisRate:72.79%    MPKI:0.00
PC:1848c     Total:921461      MisBP:107   MisRate:0.01%    MPKI:0.00
PC:175c0     Total:474770      MisBP:111   MisRate:0.02%    MPKI:0.00
PC:1867e     Total:1384      MisBP:116   MisRate:8.38%    MPKI:0.00
PC:146b0     Total:1273      MisBP:125   MisRate:9.82%    MPKI:0.00
PC:174bc     Total:1298853      MisBP:131   MisRate:0.01%    MPKI:0.00
PC:18ed0     Total:66316      MisBP:142   MisRate:0.21%    MPKI:0.00
PC:146f0     Total:1100      MisBP:144   MisRate:13.09%    MPKI:0.00
PC:17398     Total:1871      MisBP:145   MisRate:7.75%    MPKI:0.00
PC:1737a     Total:1951      MisBP:158   MisRate:8.10%    MPKI:0.00
PC:10f9c     Total:1274      MisBP:159   MisRate:12.48%    MPKI:0.00
PC:18644     Total:264833      MisBP:159   MisRate:0.06%    MPKI:0.00
PC:29804     Total:9579      MisBP:162   MisRate:1.69%    MPKI:0.00
PC:1104e     Total:1039      MisBP:172   MisRate:16.55%    MPKI:0.00
PC:173bc     Total:1738      MisBP:217   MisRate:12.49%    MPKI:0.00
PC:1738c     Total:1734      MisBP:233   MisRate:13.44%    MPKI:0.00
PC:135c6     Total:753503      MisBP:253   MisRate:0.03%    MPKI:0.00
PC:146a4     Total:2121      MisBP:269   MisRate:12.68%    MPKI:0.00
PC:146a6     Total:2117      MisBP:320   MisRate:15.12%    MPKI:0.00
PC:1359a     Total:166582      MisBP:329   MisRate:0.20%    MPKI:0.00
PC:174ce     Total:1637635      MisBP:332   MisRate:0.02%    MPKI:0.00
PC:16dce     Total:4115      MisBP:397   MisRate:9.65%    MPKI:0.00
PC:13bf6     Total:3106028      MisBP:447   MisRate:0.01%    MPKI:0.00
PC:29454     Total:2205      MisBP:469   MisRate:21.27%    MPKI:0.00
PC:17b80     Total:68905      MisBP:475   MisRate:0.69%    MPKI:0.00
PC:186bc     Total:2201      MisBP:477   MisRate:21.67%    MPKI:0.00
PC:13bd0     Total:3028480      MisBP:732   MisRate:0.02%    MPKI:0.00
PC:18674     Total:28038      MisBP:843   MisRate:3.01%    MPKI:0.00
PC:16de0     Total:3997      MisBP:909   MisRate:22.74%    MPKI:0.00
PC:16e3e     Total:14564      MisBP:1063   MisRate:7.30%    MPKI:0.00
PC:184f8     Total:3884674      MisBP:1946   MisRate:0.05%    MPKI:0.01
PC:16e50     Total:12921      MisBP:2694   MisRate:20.85%    MPKI:0.01
PC:13efe     Total:54770      MisBP:4743   MisRate:8.66%    MPKI:0.02
PC:17b64     Total:102746      MisBP:6829   MisRate:6.65%    MPKI:0.02
PC:17584     Total:1692116      MisBP:8982   MisRate:0.53%    MPKI:0.03
PC:17632     Total:1040433      MisBP:9105   MisRate:0.88%    MPKI:0.03
PC:17084     Total:211275      MisBP:11038   MisRate:5.22%    MPKI:0.04
PC:18782     Total:43055      MisBP:11316   MisRate:26.28%    MPKI:0.04
PC:185d8     Total:187569      MisBP:13848   MisRate:7.38%    MPKI:0.04
PC:1759c     Total:1480902      MisBP:16700   MisRate:1.13%    MPKI:0.05
PC:18796     Total:170983      MisBP:17637   MisRate:10.32%    MPKI:0.06
PC:17b76     Total:93948      MisBP:25010   MisRate:26.62%    MPKI:0.08
PC:13eb0     Total:130015      MisBP:32033   MisRate:24.64%    MPKI:0.10
PC:135aa     Total:732665      MisBP:43239   MisRate:5.90%    MPKI:0.14
PC:17500     Total:1065634      MisBP:109312   MisRate:10.26%    MPKI:0.35
PC:1849a     Total:892626      MisBP:115064   MisRate:12.89%    MPKI:0.37
PC:17622     Total:987860      MisBP:118680   MisRate:12.01%    MPKI:0.38
PC:13bca     Total:3058125      MisBP:123400   MisRate:4.04%    MPKI:0.40
PC:174e8     Total:1221926      MisBP:124797   MisRate:10.21%    MPKI:0.40
PC:1754e     Total:1206088      MisBP:127530   MisRate:10.57%    MPKI:0.41
PC:17690     Total:1182114      MisBP:130869   MisRate:11.07%    MPKI:0.42
PC:18628     Total:505223      MisBP:131996   MisRate:26.13%    MPKI:0.43
PC:185f2     Total:3297843      MisBP:138302   MisRate:4.19%    MPKI:0.45
PC:170ba     Total:2369611      MisBP:161290   MisRate:6.81%    MPKI:0.52
PC:1753e     Total:1017311      MisBP:180195   MisRate:17.71%    MPKI:0.58
PC:174d4     Total:1604779      MisBP:183459   MisRate:11.43%    MPKI:0.59
PC:184f2     Total:4113847      MisBP:185708   MisRate:4.51%    MPKI:0.60
PC:175f8     Total:1805517      MisBP:273305   MisRate:15.14%    MPKI:0.88
PC:16cf6     Total:3652256      MisBP:278756   MisRate:7.63%    MPKI:0.90
PC:17066     Total:2952086      MisBP:437459   MisRate:14.82%    MPKI:1.41
PC:17564     Total:5819563      MisBP:449834   MisRate:7.73%    MPKI:1.45
PC:16ca2     Total:4390232      MisBP:726773   MisRate:16.55%    MPKI:2.34
Totfetch:645863944  TotInsts:310000003  TotMis : inf%   MPKI : 13.59
=============finish sim!!!!!!=============
Done running SimPoint!
