Global frequency set at 1000000000000 ticks per second
 Register [printBranch()] ExitCallback !!!!!!! 
gem5 Simulator System.  https://www.gem5.org
gem5 is copyrighted software; use the --copyright option for details.

gem5 version 22.0.0.2
gem5 compiled Sep  7 2022 00:42:18
gem5 started Sep  7 2022 01:25:58
gem5 executing on a100, pid 2711945
command line: /data/zxf/gem5/gem5-prof/build/ARM/gem5.fast --outdir=/data/zxf/checkpoint/spec2006/471.omnetpp/prof/omnetpp_ckp_1 /data/zxf/gem5/gem5-prof/configs/example/se.py --cpu-type O3CPU --cpu-clock 1GHz --num-cpu 1 --l1d-hwp-type=BOPPrefetcher --caches --l2cache --l1i_size 32kB --l1d_size 32kB --l2_size 1MB --l1i_assoc 8 --l1d_assoc 8 --l2_assoc 16 --cacheline_size 64 --mem-type DDR3_2133_8x8 --mem-size 16GB --restore-simpoint-checkpoint -r 1 --checkpoint-dir /data/zxf/checkpoint/spec2006/471.omnetpp/ckpt -c omnetpp_base.gcc41-64bit -o omnetpp.ini

info: Standard input is not a terminal, disabling listeners.
Resuming from /data/zxf/checkpoint/spec2006/471.omnetpp/ckpt/cpt.simpoint_00_inst_4190000000_weight_0.014849_interval_300000000_warmup_10000000
Resuming from SimPoint #0, start_inst:4190000000, weight:0.014849, interval:300000000, warmup:10000000
Switch at curTick count:10000
Switched CPUS @ tick 2474286940500
[(<m5.objects.ArmCPU.ArmAtomicSimpleCPU object at 0x7f32f8b75940>, <m5.objects.ArmCPU.ArmO3CPU object at 0x7f32f8b8ddc0>)]
switching cpus



+++++++++++++++++++++++++zxf print simpoint+++++++++++++++++++++++++++
Warmed up! Dumping and resetting stats!


=============start sim!!!!!!=============
PC:ba8c4     Total:2415      MisBP:0   MisRate:0.00%    MPKI:0.00
PC:bbc34     Total:3      MisBP:0   MisRate:0.00%    MPKI:0.00
PC:3ff53748     Total:1      MisBP:0   MisRate:0.00%    MPKI:0.00
PC:b1a12     Total:1      MisBP:0   MisRate:0.00%    MPKI:0.00
PC:ba8c8     Total:2415      MisBP:0   MisRate:0.00%    MPKI:0.00
PC:42298     Total:2      MisBP:0   MisRate:0.00%    MPKI:0.00
PC:3ff53744     Total:1      MisBP:0   MisRate:0.00%    MPKI:0.00
PC:be750     Total:43988      MisBP:0   MisRate:0.00%    MPKI:0.00
PC:1c530     Total:23      MisBP:0   MisRate:0.00%    MPKI:0.00
PC:dcdb6     Total:1      MisBP:0   MisRate:0.00%    MPKI:0.00
PC:4229c     Total:2      MisBP:0   MisRate:0.00%    MPKI:0.00
PC:be74c     Total:43996      MisBP:0   MisRate:0.00%    MPKI:0.00
PC:dcdb2     Total:1      MisBP:0   MisRate:0.00%    MPKI:0.00
PC:42290     Total:264      MisBP:0   MisRate:0.00%    MPKI:0.00
PC:3ff5373c     Total:1      MisBP:0   MisRate:0.00%    MPKI:0.00
PC:b1a06     Total:1      MisBP:0   MisRate:0.00%    MPKI:0.00
PC:3d24a     Total:38720      MisBP:0   MisRate:0.00%    MPKI:0.00
PC:2308508     Total:1      MisBP:0   MisRate:0.00%    MPKI:0.00
PC:ba8bc     Total:2422      MisBP:0   MisRate:0.00%    MPKI:0.00
PC:4228c     Total:264      MisBP:0   MisRate:0.00%    MPKI:0.00
PC:be75e     Total:40469      MisBP:0   MisRate:0.00%    MPKI:0.00
PC:c8674     Total:67      MisBP:0   MisRate:0.00%    MPKI:0.00
PC:1c232     Total:129      MisBP:0   MisRate:0.00%    MPKI:0.00
PC:3fe6ce58     Total:1      MisBP:0   MisRate:0.00%    MPKI:0.00
PC:be7b4     Total:27912      MisBP:0   MisRate:0.00%    MPKI:0.00
PC:44e1c     Total:2902      MisBP:0   MisRate:0.00%    MPKI:0.00
PC:3c0c0     Total:30092      MisBP:0   MisRate:0.00%    MPKI:0.00
PC:3fe1d570     Total:1      MisBP:0   MisRate:0.00%    MPKI:0.00
PC:be774     Total:27567      MisBP:0   MisRate:0.00%    MPKI:0.00
PC:be770     Total:27740      MisBP:0   MisRate:0.00%    MPKI:0.00
PC:3ff53738     Total:1      MisBP:0   MisRate:0.00%    MPKI:0.00
PC:ba8d2     Total:161      MisBP:0   MisRate:0.00%    MPKI:0.00
PC:422a2     Total:5      MisBP:0   MisRate:0.00%    MPKI:0.00
PC:bbc3a     Total:3      MisBP:0   MisRate:0.00%    MPKI:0.00
PC:b1a18     Total:1      MisBP:0   MisRate:0.00%    MPKI:0.00
PC:4229e     Total:2      MisBP:0   MisRate:0.00%    MPKI:0.00
PC:da29c     Total:4359      MisBP:0   MisRate:0.00%    MPKI:0.00
PC:bbc36     Total:3      MisBP:0   MisRate:0.00%    MPKI:0.00
PC:b1a14     Total:1      MisBP:0   MisRate:0.00%    MPKI:0.00
PC:3c042     Total:4729      MisBP:0   MisRate:0.00%    MPKI:0.00
PC:be700     Total:5450      MisBP:0   MisRate:0.00%    MPKI:0.00
PC:dcd66     Total:23      MisBP:0   MisRate:0.00%    MPKI:0.00
PC:47284     Total:1843      MisBP:0   MisRate:0.00%    MPKI:0.00
PC:3ff80fb8     Total:1      MisBP:0   MisRate:0.00%    MPKI:0.00
PC:42242     Total:496      MisBP:0   MisRate:0.00%    MPKI:0.00
PC:da240     Total:510      MisBP:0   MisRate:0.00%    MPKI:0.00
PC:471be     Total:3      MisBP:0   MisRate:0.00%    MPKI:0.00
PC:471ba     Total:9      MisBP:0   MisRate:0.00%    MPKI:0.00
PC:41084     Total:3750      MisBP:0   MisRate:0.00%    MPKI:0.00
PC:3c04c     Total:4729      MisBP:0   MisRate:0.00%    MPKI:0.00
PC:be6f6     Total:103673      MisBP:0   MisRate:0.00%    MPKI:0.00
PC:dcd5c     Total:23      MisBP:0   MisRate:0.00%    MPKI:0.00
PC:4727c     Total:1702      MisBP:0   MisRate:0.00%    MPKI:0.00
PC:3ff80fb0     Total:1      MisBP:0   MisRate:0.00%    MPKI:0.00
PC:4223a     Total:1827      MisBP:0   MisRate:0.00%    MPKI:0.00
PC:da238     Total:1070      MisBP:0   MisRate:0.00%    MPKI:0.00
PC:471b4     Total:9      MisBP:0   MisRate:0.00%    MPKI:0.00
PC:3c034     Total:377      MisBP:0   MisRate:0.00%    MPKI:0.00
PC:51680     Total:72379      MisBP:0   MisRate:0.00%    MPKI:0.00
PC:b1a02     Total:1      MisBP:0   MisRate:0.00%    MPKI:0.00
PC:ba8b8     Total:2422      MisBP:0   MisRate:0.00%    MPKI:0.00
PC:42288     Total:264      MisBP:0   MisRate:0.00%    MPKI:0.00
PC:3ff53734     Total:1      MisBP:0   MisRate:0.00%    MPKI:0.00
PC:ba8b4     Total:2422      MisBP:0   MisRate:0.00%    MPKI:0.00
PC:42284     Total:264      MisBP:0   MisRate:0.00%    MPKI:0.00
PC:da282     Total:1      MisBP:0   MisRate:0.00%    MPKI:0.00
PC:3ff53730     Total:1      MisBP:0   MisRate:0.00%    MPKI:0.00
PC:3d23c     Total:3537      MisBP:0   MisRate:0.00%    MPKI:0.00
PC:44aba     Total:325      MisBP:0   MisRate:0.00%    MPKI:0.00
PC:471fa     Total:999      MisBP:0   MisRate:0.00%    MPKI:0.00
PC:42272     Total:206      MisBP:0   MisRate:0.00%    MPKI:0.00
PC:da270     Total:59      MisBP:0   MisRate:0.00%    MPKI:0.00
PC:471ee     Total:216      MisBP:0   MisRate:0.00%    MPKI:0.00
PC:41092     Total:41      MisBP:0   MisRate:0.00%    MPKI:0.00
PC:3c050     Total:4839      MisBP:0   MisRate:0.00%    MPKI:0.00
PC:be704     Total:5450      MisBP:0   MisRate:0.00%    MPKI:0.00
PC:dcd6a     Total:23      MisBP:0   MisRate:0.00%    MPKI:0.00
PC:3ff75b24     Total:1      MisBP:0   MisRate:0.00%    MPKI:0.00
PC:d3df4     Total:1      MisBP:0   MisRate:0.00%    MPKI:0.00
PC:4267a     Total:1      MisBP:0   MisRate:0.00%    MPKI:0.00
PC:b1df0     Total:370      MisBP:0   MisRate:0.00%    MPKI:0.00
PC:d4756     Total:14006      MisBP:0   MisRate:0.00%    MPKI:0.00
PC:1fe0e     Total:19      MisBP:0   MisRate:0.00%    MPKI:0.00
PC:479ee     Total:1245      MisBP:0   MisRate:0.00%    MPKI:0.00
PC:1f4a6     Total:22      MisBP:0   MisRate:0.00%    MPKI:0.00
PC:d3dee     Total:1      MisBP:0   MisRate:0.00%    MPKI:0.00
PC:3ff4d29c     Total:1      MisBP:0   MisRate:0.00%    MPKI:0.00
PC:479f2     Total:1203      MisBP:0   MisRate:0.00%    MPKI:0.00
PC:207bc     Total:25      MisBP:0   MisRate:0.00%    MPKI:0.00
PC:ba7c0     Total:2010      MisBP:0   MisRate:0.00%    MPKI:0.00
PC:40e28     Total:2482      MisBP:0   MisRate:0.00%    MPKI:0.00
PC:be7d8     Total:27817      MisBP:0   MisRate:0.00%    MPKI:0.00
PC:44e40     Total:362      MisBP:0   MisRate:0.00%    MPKI:0.00
PC:22d6de4     Total:1      MisBP:0   MisRate:0.00%    MPKI:0.00
PC:44ada     Total:8      MisBP:0   MisRate:0.00%    MPKI:0.00
PC:3fe6ce78     Total:1      MisBP:0   MisRate:0.00%    MPKI:0.00
PC:be7d4     Total:27825      MisBP:0   MisRate:0.00%    MPKI:0.00
PC:1fe20     Total:19      MisBP:0   MisRate:0.00%    MPKI:0.00
PC:41a72     Total:2641      MisBP:0   MisRate:0.00%    MPKI:0.00
PC:1bf20     Total:19      MisBP:0   MisRate:0.00%    MPKI:0.00
PC:3f0ee     Total:7302      MisBP:0   MisRate:0.00%    MPKI:0.00
PC:22a4e58     Total:2      MisBP:0   MisRate:0.00%    MPKI:0.00
PC:d476c     Total:12632      MisBP:0   MisRate:0.00%    MPKI:0.00
PC:3fe8d394     Total:2      MisBP:0   MisRate:0.00%    MPKI:0.00
PC:1fe24     Total:19      MisBP:0   MisRate:0.00%    MPKI:0.00
PC:47a04     Total:1183      MisBP:0   MisRate:0.00%    MPKI:0.00
PC:3fe8d390     Total:2      MisBP:0   MisRate:0.00%    MPKI:0.00
PC:44e3c     Total:1200      MisBP:0   MisRate:0.00%    MPKI:0.00
PC:47a00     Total:1183      MisBP:0   MisRate:0.00%    MPKI:0.00
PC:479fc     Total:1274      MisBP:0   MisRate:0.00%    MPKI:0.00
PC:c0442     Total:2550      MisBP:0   MisRate:0.00%    MPKI:0.00
PC:d4886     Total:18375      MisBP:0   MisRate:0.00%    MPKI:0.00
PC:1bf16     Total:19      MisBP:0   MisRate:0.00%    MPKI:0.00
PC:da8e2     Total:1      MisBP:0   MisRate:0.00%    MPKI:0.00
PC:3f0e4     Total:7415      MisBP:0   MisRate:0.00%    MPKI:0.00
PC:2300180     Total:1      MisBP:0   MisRate:0.00%    MPKI:0.00
PC:3fe6ce64     Total:1      MisBP:0   MisRate:0.00%    MPKI:0.00
PC:44aca     Total:635      MisBP:0   MisRate:0.00%    MPKI:0.00
PC:c8684     Total:6      MisBP:0   MisRate:0.00%    MPKI:0.00
PC:3fe6ce68     Total:1      MisBP:0   MisRate:0.00%    MPKI:0.00
PC:be7c4     Total:27694      MisBP:0   MisRate:0.00%    MPKI:0.00
PC:44e2c     Total:552      MisBP:0   MisRate:0.00%    MPKI:0.00
PC:22d6dd0     Total:1      MisBP:0   MisRate:0.00%    MPKI:0.00
PC:1ff56     Total:2      MisBP:0   MisRate:0.00%    MPKI:0.00
PC:44ac6     Total:1905      MisBP:0   MisRate:0.00%    MPKI:0.00
PC:c8680     Total:6      MisBP:0   MisRate:0.00%    MPKI:0.00
PC:3ff80fbc     Total:1      MisBP:0   MisRate:0.00%    MPKI:0.00
PC:be7c0     Total:27695      MisBP:0   MisRate:0.00%    MPKI:0.00
PC:44ac2     Total:635      MisBP:0   MisRate:0.00%    MPKI:0.00
PC:c867c     Total:67      MisBP:0   MisRate:0.00%    MPKI:0.00
PC:3fe6ce60     Total:1      MisBP:0   MisRate:0.00%    MPKI:0.00
PC:be7bc     Total:27907      MisBP:0   MisRate:0.00%    MPKI:0.00
PC:44e24     Total:731      MisBP:0   MisRate:0.00%    MPKI:0.00
PC:be7b8     Total:27908      MisBP:0   MisRate:0.00%    MPKI:0.00
PC:44e20     Total:2901      MisBP:0   MisRate:0.00%    MPKI:0.00
PC:1ff5e     Total:2      MisBP:0   MisRate:0.00%    MPKI:0.00
PC:22d6de0     Total:1      MisBP:0   MisRate:0.00%    MPKI:0.00
PC:1ff66     Total:2      MisBP:0   MisRate:0.00%    MPKI:0.00
PC:be7d0     Total:55656      MisBP:0   MisRate:0.00%    MPKI:0.00
PC:22d6ddc     Total:1      MisBP:0   MisRate:0.00%    MPKI:0.00
PC:1ff62     Total:2      MisBP:0   MisRate:0.00%    MPKI:0.00
PC:be7cc     Total:27693      MisBP:0   MisRate:0.00%    MPKI:0.00
PC:44e34     Total:941      MisBP:0   MisRate:0.00%    MPKI:0.00
PC:b4cbc     Total:2836      MisBP:0   MisRate:0.00%    MPKI:0.00
PC:22d6dd8     Total:1      MisBP:0   MisRate:0.00%    MPKI:0.00
PC:be6e8     Total:133437      MisBP:0   MisRate:0.00%    MPKI:0.00
PC:be7c8     Total:27693      MisBP:0   MisRate:0.00%    MPKI:0.00
PC:44e30     Total:552      MisBP:0   MisRate:0.00%    MPKI:0.00
PC:22d6dd4     Total:1      MisBP:0   MisRate:0.00%    MPKI:0.00
PC:1ff5a     Total:2      MisBP:0   MisRate:0.00%    MPKI:0.00
PC:42246     Total:496      MisBP:0   MisRate:0.00%    MPKI:0.00
PC:da244     Total:510      MisBP:0   MisRate:0.00%    MPKI:0.00
PC:b19bc     Total:43      MisBP:0   MisRate:0.00%    MPKI:0.00
PC:47288     Total:498      MisBP:0   MisRate:0.00%    MPKI:0.00
PC:a7394     Total:84      MisBP:0   MisRate:0.00%    MPKI:0.00
PC:1f47c     Total:25      MisBP:0   MisRate:0.00%    MPKI:0.00
PC:3f324     Total:16252      MisBP:0   MisRate:0.00%    MPKI:0.00
PC:3fe5c2e4     Total:1      MisBP:0   MisRate:0.00%    MPKI:0.00
PC:1ffdc     Total:28      MisBP:0   MisRate:0.00%    MPKI:0.00
PC:22f54bc     Total:1      MisBP:0   MisRate:0.00%    MPKI:0.00
PC:3ffe7aec     Total:1      MisBP:0   MisRate:0.00%    MPKI:0.00
PC:bb7da     Total:3144      MisBP:0   MisRate:0.00%    MPKI:0.00
PC:a7396     Total:84      MisBP:0   MisRate:0.00%    MPKI:0.00
PC:bb7d8     Total:3144      MisBP:0   MisRate:0.00%    MPKI:0.00
PC:d5ae0     Total:13099      MisBP:0   MisRate:0.00%    MPKI:0.00
PC:d3bae     Total:158      MisBP:0   MisRate:0.00%    MPKI:0.00
PC:45dd2     Total:6453      MisBP:0   MisRate:0.00%    MPKI:0.00
PC:a7390     Total:84      MisBP:0   MisRate:0.00%    MPKI:0.00
PC:41c76     Total:3568      MisBP:0   MisRate:0.00%    MPKI:0.00
PC:bb60e     Total:4238      MisBP:0   MisRate:0.00%    MPKI:0.00
PC:3fe9289c     Total:1      MisBP:0   MisRate:0.00%    MPKI:0.00
PC:1ffd2     Total:11      MisBP:0   MisRate:0.00%    MPKI:0.00
PC:22d6e4c     Total:1      MisBP:0   MisRate:0.00%    MPKI:0.00
PC:bb7d0     Total:4678      MisBP:0   MisRate:0.00%    MPKI:0.00
PC:3f330     Total:14725      MisBP:0   MisRate:0.00%    MPKI:0.00
PC:1fb16     Total:35      MisBP:0   MisRate:0.00%    MPKI:0.00
PC:3fe5c2f8     Total:1      MisBP:0   MisRate:0.00%    MPKI:0.00
PC:bb7ee     Total:4611      MisBP:0   MisRate:0.00%    MPKI:0.00
PC:a73aa     Total:73      MisBP:0   MisRate:0.00%    MPKI:0.00
PC:d5aee     Total:13096      MisBP:0   MisRate:0.00%    MPKI:0.00
PC:1f48a     Total:11      MisBP:0   MisRate:0.00%    MPKI:0.00
PC:3f332     Total:14725      MisBP:0   MisRate:0.00%    MPKI:0.00
PC:d5aec     Total:13096      MisBP:0   MisRate:0.00%    MPKI:0.00
PC:1f488     Total:11      MisBP:0   MisRate:0.00%    MPKI:0.00
PC:a738c     Total:84      MisBP:0   MisRate:0.00%    MPKI:0.00
PC:3f32c     Total:14725      MisBP:0   MisRate:0.00%    MPKI:0.00
PC:d5ae6     Total:13099      MisBP:0   MisRate:0.00%    MPKI:0.00
PC:1f482     Total:11      MisBP:0   MisRate:0.00%    MPKI:0.00
PC:3f32a     Total:75485      MisBP:0   MisRate:0.00%    MPKI:0.00
PC:bb61c     Total:2069      MisBP:0   MisRate:0.00%    MPKI:0.00
PC:d5ae2     Total:13099      MisBP:0   MisRate:0.00%    MPKI:0.00
PC:1f47e     Total:11      MisBP:0   MisRate:0.00%    MPKI:0.00
PC:3f326     Total:16250      MisBP:0   MisRate:0.00%    MPKI:0.00
PC:a7380     Total:84      MisBP:0   MisRate:0.00%    MPKI:0.00
PC:45dc6     Total:4570      MisBP:0   MisRate:0.00%    MPKI:0.00
PC:10194     Total:333      MisBP:0   MisRate:0.00%    MPKI:0.00
PC:bb7c8     Total:4678      MisBP:0   MisRate:0.00%    MPKI:0.00
PC:a7384     Total:84      MisBP:0   MisRate:0.00%    MPKI:0.00
PC:bb7c6     Total:4678      MisBP:0   MisRate:0.00%    MPKI:0.00
PC:d3b9e     Total:11441      MisBP:0   MisRate:0.00%    MPKI:0.00
PC:45dc2     Total:4570      MisBP:0   MisRate:0.00%    MPKI:0.00
PC:10190     Total:334      MisBP:0   MisRate:0.00%    MPKI:0.00
PC:bb7c4     Total:4678      MisBP:0   MisRate:0.00%    MPKI:0.00
PC:a7386     Total:84      MisBP:0   MisRate:0.00%    MPKI:0.00
PC:bb7c0     Total:4675      MisBP:0   MisRate:0.00%    MPKI:0.00
PC:a737c     Total:245      MisBP:0   MisRate:0.00%    MPKI:0.00
PC:bb7bc     Total:5037      MisBP:0   MisRate:0.00%    MPKI:0.00
PC:bb7b8     Total:5037      MisBP:0   MisRate:0.00%    MPKI:0.00
PC:a7374     Total:245      MisBP:0   MisRate:0.00%    MPKI:0.00
PC:bb7b6     Total:5037      MisBP:0   MisRate:0.00%    MPKI:0.00
PC:d3b8e     Total:10861      MisBP:0   MisRate:0.00%    MPKI:0.00
PC:42414     Total:14      MisBP:0   MisRate:0.00%    MPKI:0.00
PC:4242c     Total:14      MisBP:0   MisRate:0.00%    MPKI:0.00
PC:41c72     Total:3568      MisBP:0   MisRate:0.00%    MPKI:0.00
PC:bb60a     Total:4238      MisBP:0   MisRate:0.00%    MPKI:0.00
PC:3fe92898     Total:1      MisBP:0   MisRate:0.00%    MPKI:0.00
PC:3e15c     Total:499949      MisBP:0   MisRate:0.00%    MPKI:0.00
PC:1faf6     Total:20      MisBP:0   MisRate:0.00%    MPKI:0.00
PC:3fe5c2d8     Total:1      MisBP:0   MisRate:0.00%    MPKI:0.00
PC:bb7ce     Total:4678      MisBP:0   MisRate:0.00%    MPKI:0.00
PC:a738a     Total:84      MisBP:0   MisRate:0.00%    MPKI:0.00
PC:d3ba6     Total:160      MisBP:0   MisRate:0.00%    MPKI:0.00
PC:3e17c     Total:12067      MisBP:0   MisRate:0.00%    MPKI:0.00
PC:b1ba2     Total:215      MisBP:0   MisRate:0.00%    MPKI:0.00
PC:a7980     Total:377      MisBP:0   MisRate:0.00%    MPKI:0.00
PC:bbdc4     Total:3      MisBP:0   MisRate:0.00%    MPKI:0.00
PC:10198     Total:333      MisBP:0   MisRate:0.00%    MPKI:0.00
PC:1ffce     Total:11      MisBP:0   MisRate:0.00%    MPKI:0.00
PC:22d6e48     Total:1      MisBP:0   MisRate:0.00%    MPKI:0.00
PC:bb7cc     Total:4678      MisBP:0   MisRate:0.00%    MPKI:0.00
PC:bb7ca     Total:4678      MisBP:0   MisRate:0.00%    MPKI:0.00
PC:d5b06     Total:12021      MisBP:0   MisRate:0.00%    MPKI:0.00
PC:d6878     Total:6      MisBP:0   MisRate:0.00%    MPKI:0.00
PC:20212     Total:1      MisBP:0   MisRate:0.00%    MPKI:0.00
PC:d6876     Total:6      MisBP:0   MisRate:0.00%    MPKI:0.00
PC:20210     Total:1      MisBP:0   MisRate:0.00%    MPKI:0.00
PC:d6874     Total:6      MisBP:0   MisRate:0.00%    MPKI:0.00
PC:4a5ac     Total:85841      MisBP:0   MisRate:0.00%    MPKI:0.00
PC:2020c     Total:1      MisBP:0   MisRate:0.00%    MPKI:0.00
PC:d6870     Total:6      MisBP:0   MisRate:0.00%    MPKI:0.00
PC:3f356     Total:17189      MisBP:0   MisRate:0.00%    MPKI:0.00
PC:20214     Total:1      MisBP:0   MisRate:0.00%    MPKI:0.00
PC:3f34a     Total:31075      MisBP:0   MisRate:0.00%    MPKI:0.00
PC:20ce4     Total:1      MisBP:0   MisRate:0.00%    MPKI:0.00
PC:d5af8     Total:11790      MisBP:0   MisRate:0.00%    MPKI:0.00
PC:3f33c     Total:34084      MisBP:0   MisRate:0.00%    MPKI:0.00
PC:3f334     Total:21782      MisBP:0   MisRate:0.00%    MPKI:0.00
PC:d5aea     Total:13096      MisBP:0   MisRate:0.00%    MPKI:0.00
PC:3f32e     Total:14725      MisBP:0   MisRate:0.00%    MPKI:0.00
PC:42ba6     Total:131      MisBP:0   MisRate:0.00%    MPKI:0.00
PC:1ff42     Total:2      MisBP:0   MisRate:0.00%    MPKI:0.00
PC:4a5d4     Total:1      MisBP:0   MisRate:0.00%    MPKI:0.00
PC:be6e4     Total:133448      MisBP:0   MisRate:0.00%    MPKI:0.00
PC:3c01e     Total:7738      MisBP:0   MisRate:0.00%    MPKI:0.00
PC:44b74     Total:8      MisBP:0   MisRate:0.00%    MPKI:0.00
PC:1c2ec     Total:129      MisBP:0   MisRate:0.00%    MPKI:0.00
PC:bb268     Total:335      MisBP:0   MisRate:0.00%    MPKI:0.00
PC:418d0     Total:656      MisBP:0   MisRate:0.00%    MPKI:0.00
PC:22d6e14     Total:1      MisBP:0   MisRate:0.00%    MPKI:0.00
PC:1ff9a     Total:3      MisBP:0   MisRate:0.00%    MPKI:0.00
PC:4170a     Total:196      MisBP:0   MisRate:0.00%    MPKI:0.00
PC:b9f46     Total:14      MisBP:0   MisRate:0.00%    MPKI:0.00
PC:20236     Total:1      MisBP:0   MisRate:0.00%    MPKI:0.00
PC:22d6e08     Total:1      MisBP:0   MisRate:0.00%    MPKI:0.00
PC:1ff8e     Total:3      MisBP:0   MisRate:0.00%    MPKI:0.00
PC:416fe     Total:197      MisBP:0   MisRate:0.00%    MPKI:0.00
PC:4a5b6     Total:449      MisBP:0   MisRate:0.00%    MPKI:0.00
PC:3fe21844     Total:1      MisBP:0   MisRate:0.00%    MPKI:0.00
PC:20218     Total:1      MisBP:0   MisRate:0.00%    MPKI:0.00
PC:d687c     Total:6      MisBP:0   MisRate:0.00%    MPKI:0.00
PC:3ff1ad38     Total:1      MisBP:0   MisRate:0.00%    MPKI:0.00
PC:3ff57a0c     Total:1      MisBP:0   MisRate:0.00%    MPKI:0.00
PC:d48ae     Total:1      MisBP:0   MisRate:0.00%    MPKI:0.00
PC:bfef4     Total:12201      MisBP:0   MisRate:0.00%    MPKI:0.00
PC:3ff1ad3c     Total:1      MisBP:0   MisRate:0.00%    MPKI:0.00
PC:3ff57a08     Total:1      MisBP:0   MisRate:0.00%    MPKI:0.00
PC:d48aa     Total:1      MisBP:0   MisRate:0.00%    MPKI:0.00
PC:b9f66     Total:12      MisBP:0   MisRate:0.00%    MPKI:0.00
PC:3ff5bc9c     Total:1      MisBP:0   MisRate:0.00%    MPKI:0.00
PC:bfef0     Total:12201      MisBP:0   MisRate:0.00%    MPKI:0.00
PC:3ff1ad40     Total:1      MisBP:0   MisRate:0.00%    MPKI:0.00
PC:3ff57a04     Total:1      MisBP:0   MisRate:0.00%    MPKI:0.00
PC:bfeec     Total:12201      MisBP:0   MisRate:0.00%    MPKI:0.00
PC:3ff1ad34     Total:1      MisBP:0   MisRate:0.00%    MPKI:0.00
PC:3ff57a00     Total:1      MisBP:0   MisRate:0.00%    MPKI:0.00
PC:3f338     Total:21782      MisBP:0   MisRate:0.00%    MPKI:0.00
PC:d5af2     Total:13096      MisBP:0   MisRate:0.00%    MPKI:0.00
PC:1f48e     Total:11      MisBP:0   MisRate:0.00%    MPKI:0.00
PC:3f336     Total:21782      MisBP:0   MisRate:0.00%    MPKI:0.00
PC:45354     Total:7131      MisBP:0   MisRate:0.00%    MPKI:0.00
PC:3ff5bc7c     Total:1      MisBP:0   MisRate:0.00%    MPKI:0.00
PC:3f468     Total:30797      MisBP:0   MisRate:0.00%    MPKI:0.00
PC:b8948     Total:455      MisBP:0   MisRate:0.00%    MPKI:0.00
PC:3f45e     Total:10434      MisBP:0   MisRate:0.00%    MPKI:0.00
PC:1ff32     Total:243      MisBP:0   MisRate:0.00%    MPKI:0.00
PC:b9f36     Total:45      MisBP:0   MisRate:0.00%    MPKI:0.00
PC:3ff5bc6c     Total:1      MisBP:0   MisRate:0.00%    MPKI:0.00
PC:b8942     Total:455      MisBP:0   MisRate:0.00%    MPKI:0.00
PC:3feb8458     Total:1      MisBP:0   MisRate:0.00%    MPKI:0.00
PC:c044c     Total:2550      MisBP:0   MisRate:0.00%    MPKI:0.00
PC:3f458     Total:10471      MisBP:0   MisRate:0.00%    MPKI:0.00
PC:3f454     Total:8782      MisBP:0   MisRate:0.00%    MPKI:0.00
PC:beeac     Total:1      MisBP:0   MisRate:0.00%    MPKI:0.00
PC:b893c     Total:459      MisBP:0   MisRate:0.00%    MPKI:0.00
PC:4534e     Total:7131      MisBP:0   MisRate:0.00%    MPKI:0.00
PC:3f452     Total:8782      MisBP:0   MisRate:0.00%    MPKI:0.00
PC:3f450     Total:26347      MisBP:0   MisRate:0.00%    MPKI:0.00
PC:bfef8     Total:12201      MisBP:0   MisRate:0.00%    MPKI:0.00
PC:b9f14     Total:39      MisBP:0   MisRate:0.00%    MPKI:0.00
PC:42b76     Total:1      MisBP:0   MisRate:0.00%    MPKI:0.00
PC:b22ec     Total:1      MisBP:0   MisRate:0.00%    MPKI:0.00
PC:3ff5bc4c     Total:1      MisBP:0   MisRate:0.00%    MPKI:0.00
PC:b8922     Total:13295      MisBP:0   MisRate:0.00%    MPKI:0.00
PC:3ef8a     Total:2158      MisBP:0   MisRate:0.00%    MPKI:0.00
PC:3feb8438     Total:1      MisBP:0   MisRate:0.00%    MPKI:0.00
PC:45334     Total:7645      MisBP:0   MisRate:0.00%    MPKI:0.00
PC:42b74     Total:198      MisBP:0   MisRate:0.00%    MPKI:0.00
PC:b22ea     Total:1      MisBP:0   MisRate:0.00%    MPKI:0.00
PC:3f438     Total:25786      MisBP:0   MisRate:0.00%    MPKI:0.00
PC:3ffa2b38     Total:1      MisBP:0   MisRate:0.00%    MPKI:0.00
PC:b8920     Total:66480      MisBP:0   MisRate:0.00%    MPKI:0.00
PC:3ef88     Total:2158      MisBP:0   MisRate:0.00%    MPKI:0.00
PC:45332     Total:7645      MisBP:0   MisRate:0.00%    MPKI:0.00
PC:42b72     Total:198      MisBP:0   MisRate:0.00%    MPKI:0.00
PC:b22e8     Total:1      MisBP:0   MisRate:0.00%    MPKI:0.00
PC:b9f12     Total:39      MisBP:0   MisRate:0.00%    MPKI:0.00
PC:3ff5bc48     Total:1      MisBP:0   MisRate:0.00%    MPKI:0.00
PC:45330     Total:7647      MisBP:0   MisRate:0.00%    MPKI:0.00
PC:3feb843c     Total:1      MisBP:0   MisRate:0.00%    MPKI:0.00
PC:3f43c     Total:25755      MisBP:0   MisRate:0.00%    MPKI:0.00
PC:3f1ea     Total:1351      MisBP:0   MisRate:0.00%    MPKI:0.00
PC:4e2b0     Total:2624      MisBP:0   MisRate:0.00%    MPKI:0.00
PC:42b7a     Total:1      MisBP:0   MisRate:0.00%    MPKI:0.00
PC:b22f0     Total:1      MisBP:0   MisRate:0.00%    MPKI:0.00
PC:b9f1a     Total:85      MisBP:0   MisRate:0.00%    MPKI:0.00
PC:3ff5bc50     Total:1      MisBP:0   MisRate:0.00%    MPKI:0.00
PC:b8926     Total:13295      MisBP:0   MisRate:0.00%    MPKI:0.00
PC:3ef8e     Total:2157      MisBP:0   MisRate:0.00%    MPKI:0.00
PC:42b6c     Total:198      MisBP:0   MisRate:0.00%    MPKI:0.00
PC:45338     Total:7396      MisBP:0   MisRate:0.00%    MPKI:0.00
PC:3f1e8     Total:1351      MisBP:0   MisRate:0.00%    MPKI:0.00
PC:3fe48f20     Total:3      MisBP:0   MisRate:0.00%    MPKI:0.00
PC:4e2ae     Total:2624      MisBP:0   MisRate:0.00%    MPKI:0.00
PC:42b78     Total:1      MisBP:0   MisRate:0.00%    MPKI:0.00
PC:b22ee     Total:1      MisBP:0   MisRate:0.00%    MPKI:0.00
PC:b9f18     Total:85      MisBP:0   MisRate:0.00%    MPKI:0.00
PC:3ffa2b3c     Total:1      MisBP:0   MisRate:0.00%    MPKI:0.00
PC:b22da     Total:140      MisBP:0   MisRate:0.00%    MPKI:0.00
PC:bb4ec     Total:36323      MisBP:0   MisRate:0.00%    MPKI:0.00
PC:41b54     Total:5      MisBP:0   MisRate:0.00%    MPKI:0.00
PC:42b68     Total:198      MisBP:0   MisRate:0.00%    MPKI:0.00
PC:b22de     Total:140      MisBP:0   MisRate:0.00%    MPKI:0.00
PC:b9f08     Total:39      MisBP:0   MisRate:0.00%    MPKI:0.00
PC:3ffa2b2c     Total:1      MisBP:0   MisRate:0.00%    MPKI:0.00
PC:45326     Total:7647      MisBP:0   MisRate:0.00%    MPKI:0.00
PC:bb4ea     Total:38113      MisBP:0   MisRate:0.00%    MPKI:0.00
PC:42b64     Total:199      MisBP:0   MisRate:0.00%    MPKI:0.00
PC:c052e     Total:26      MisBP:0   MisRate:0.00%    MPKI:0.00
PC:c0528     Total:11008      MisBP:0   MisRate:0.00%    MPKI:0.00
PC:bb4e6     Total:38113      MisBP:0   MisRate:0.00%    MPKI:0.00
PC:41b4e     Total:1      MisBP:0   MisRate:0.00%    MPKI:0.00
PC:c0526     Total:11009      MisBP:0   MisRate:0.00%    MPKI:0.00
PC:bb4e4     Total:38114      MisBP:0   MisRate:0.00%    MPKI:0.00
PC:41b4c     Total:1      MisBP:0   MisRate:0.00%    MPKI:0.00
PC:c0522     Total:11009      MisBP:0   MisRate:0.00%    MPKI:0.00
PC:bb4e0     Total:38114      MisBP:0   MisRate:0.00%    MPKI:0.00
PC:3ffee4f4     Total:1      MisBP:0   MisRate:0.00%    MPKI:0.00
PC:b9f0c     Total:39      MisBP:0   MisRate:0.00%    MPKI:0.00
PC:3ffa2b30     Total:1      MisBP:0   MisRate:0.00%    MPKI:0.00
PC:4532a     Total:7647      MisBP:0   MisRate:0.00%    MPKI:0.00
PC:bea64     Total:55571      MisBP:0   MisRate:0.00%    MPKI:0.00
PC:bea60     Total:55572      MisBP:0   MisRate:0.00%    MPKI:0.00
PC:be9ee     Total:457278      MisBP:0   MisRate:0.00%    MPKI:0.00
PC:e7276     Total:3      MisBP:0   MisRate:0.00%    MPKI:0.00
PC:3ffee500     Total:1      MisBP:0   MisRate:0.00%    MPKI:0.00
PC:be9e2     Total:915548      MisBP:0   MisRate:0.00%    MPKI:0.00
PC:4533a     Total:7396      MisBP:0   MisRate:0.00%    MPKI:0.00
PC:be9de     Total:32384      MisBP:0   MisRate:0.00%    MPKI:0.00
PC:3ffee4f0     Total:1      MisBP:0   MisRate:0.00%    MPKI:0.00
PC:c0536     Total:26      MisBP:0   MisRate:0.00%    MPKI:0.00
PC:bb4f4     Total:2781      MisBP:0   MisRate:0.00%    MPKI:0.00
PC:41b5c     Total:1208      MisBP:0   MisRate:0.00%    MPKI:0.00
PC:c0532     Total:26      MisBP:0   MisRate:0.00%    MPKI:0.00
PC:41b58     Total:1208      MisBP:0   MisRate:0.00%    MPKI:0.00
PC:bb4ee     Total:36323      MisBP:0   MisRate:0.00%    MPKI:0.00
PC:b235e     Total:268      MisBP:0   MisRate:0.00%    MPKI:0.00
PC:d5730     Total:1      MisBP:0   MisRate:0.00%    MPKI:0.00
PC:3ef74     Total:2279      MisBP:0   MisRate:0.00%    MPKI:0.00
PC:bb290     Total:4230      MisBP:0   MisRate:0.00%    MPKI:0.00
PC:418f8     Total:494      MisBP:0   MisRate:0.00%    MPKI:0.00
PC:41724     Total:158      MisBP:0   MisRate:0.00%    MPKI:0.00
PC:da764     Total:1184      MisBP:0   MisRate:0.00%    MPKI:0.00
PC:b1edc     Total:1220      MisBP:0   MisRate:0.00%    MPKI:0.00
PC:3feb8414     Total:1      MisBP:0   MisRate:0.00%    MPKI:0.00
PC:42be8     Total:303      MisBP:0   MisRate:0.00%    MPKI:0.00
PC:f35aa     Total:200      MisBP:0   MisRate:0.00%    MPKI:0.00
PC:1ff7a     Total:2      MisBP:0   MisRate:0.00%    MPKI:0.00
PC:22d6df4     Total:1      MisBP:0   MisRate:0.00%    MPKI:0.00
PC:b9f64     Total:12      MisBP:0   MisRate:0.00%    MPKI:0.00
PC:42bc0     Total:118      MisBP:0   MisRate:0.00%    MPKI:0.00
PC:2e77c     Total:1647      MisBP:0   MisRate:0.00%    MPKI:0.00
PC:b2336     Total:269      MisBP:0   MisRate:0.00%    MPKI:0.00
PC:1fa82     Total:11      MisBP:0   MisRate:0.00%    MPKI:0.00
PC:d48a4     Total:1      MisBP:0   MisRate:0.00%    MPKI:0.00
PC:c0460     Total:4123      MisBP:0   MisRate:0.00%    MPKI:0.00
PC:3d238     Total:3537      MisBP:0   MisRate:0.00%    MPKI:0.00
PC:ba73a     Total:14726      MisBP:0   MisRate:0.00%    MPKI:0.00
PC:4afc4     Total:7      MisBP:0   MisRate:0.00%    MPKI:0.00
PC:1851a     Total:17      MisBP:0   MisRate:0.00%    MPKI:0.00
PC:ba900     Total:16      MisBP:0   MisRate:0.00%    MPKI:0.00
PC:40f68     Total:5071      MisBP:0   MisRate:0.00%    MPKI:0.00
PC:ba8fa     Total:30      MisBP:0   MisRate:0.00%    MPKI:0.00
PC:ba8f6     Total:30      MisBP:0   MisRate:0.00%    MPKI:0.00
PC:ba8e4     Total:183      MisBP:0   MisRate:0.00%    MPKI:0.00
PC:40f4c     Total:479      MisBP:0   MisRate:0.00%    MPKI:0.00
PC:1ff5c     Total:2      MisBP:0   MisRate:0.00%    MPKI:0.00
PC:5167c     Total:75611      MisBP:0   MisRate:0.00%    MPKI:0.00
PC:471ea     Total:216      MisBP:0   MisRate:0.00%    MPKI:0.00
PC:4718a     Total:922      MisBP:0   MisRate:0.00%    MPKI:0.00
PC:47186     Total:216      MisBP:0   MisRate:0.00%    MPKI:0.00
PC:47176     Total:1736      MisBP:0   MisRate:0.00%    MPKI:0.00
PC:f35b8     Total:470      MisBP:0   MisRate:0.00%    MPKI:0.00
PC:421f6     Total:50      MisBP:0   MisRate:0.00%    MPKI:0.00
PC:47168     Total:568      MisBP:0   MisRate:0.00%    MPKI:0.00
PC:3f1ec     Total:2135      MisBP:0   MisRate:0.00%    MPKI:0.00
PC:b9f2a     Total:40      MisBP:0   MisRate:0.00%    MPKI:0.00
PC:3ff5bc60     Total:1      MisBP:0   MisRate:0.00%    MPKI:0.00
PC:3f440     Total:25080      MisBP:0   MisRate:0.00%    MPKI:0.00
PC:3f1ee     Total:9660      MisBP:0   MisRate:0.00%    MPKI:0.00
PC:42b7e     Total:1      MisBP:0   MisRate:0.00%    MPKI:0.00
PC:b22f4     Total:1      MisBP:0   MisRate:0.00%    MPKI:0.00
PC:b9f1e     Total:85      MisBP:0   MisRate:0.00%    MPKI:0.00
PC:3ff5bc54     Total:1      MisBP:0   MisRate:0.00%    MPKI:0.00
PC:3f43e     Total:25750      MisBP:0   MisRate:0.00%    MPKI:0.00
PC:4534a     Total:7131      MisBP:0   MisRate:0.00%    MPKI:0.00
PC:3fe48f24     Total:3      MisBP:0   MisRate:0.00%    MPKI:0.00
PC:42b7c     Total:1      MisBP:0   MisRate:0.00%    MPKI:0.00
PC:d4860     Total:27482      MisBP:0   MisRate:0.00%    MPKI:0.00
PC:1ff18     Total:135      MisBP:0   MisRate:0.00%    MPKI:0.00
PC:b9f1c     Total:85      MisBP:0   MisRate:0.00%    MPKI:0.00
PC:3ffa2b40     Total:1      MisBP:0   MisRate:0.00%    MPKI:0.00
PC:b8928     Total:13281      MisBP:0   MisRate:0.00%    MPKI:0.00
PC:3ef90     Total:2079      MisBP:0   MisRate:0.00%    MPKI:0.00
PC:3b474     Total:237      MisBP:0   MisRate:0.00%    MPKI:0.00
PC:22f543c     Total:1      MisBP:0   MisRate:0.00%    MPKI:0.00
PC:3ffe7a6c     Total:1      MisBP:0   MisRate:0.00%    MPKI:0.00
PC:b9f60     Total:12      MisBP:0   MisRate:0.00%    MPKI:0.00
PC:4a540     Total:3078      MisBP:0   MisRate:0.00%    MPKI:0.00
PC:3b47a     Total:235      MisBP:0   MisRate:0.00%    MPKI:0.00
PC:b9f54     Total:12      MisBP:0   MisRate:0.00%    MPKI:0.00
PC:3ffa2b78     Total:1      MisBP:0   MisRate:0.00%    MPKI:0.00
PC:1ff4a     Total:2      MisBP:0   MisRate:0.00%    MPKI:0.00
PC:4a53a     Total:1057      MisBP:0   MisRate:0.00%    MPKI:0.00
PC:41b48     Total:26      MisBP:0   MisRate:0.00%    MPKI:0.00
PC:b9f4e     Total:14      MisBP:0   MisRate:0.00%    MPKI:0.00
PC:3ff5bc84     Total:1      MisBP:0   MisRate:0.00%    MPKI:0.00
PC:3ffa2b58     Total:1      MisBP:0   MisRate:0.00%    MPKI:0.00
PC:b8940     Total:455      MisBP:0   MisRate:0.00%    MPKI:0.00
PC:3efa8     Total:2115      MisBP:0   MisRate:0.00%    MPKI:0.00
PC:45352     Total:7131      MisBP:0   MisRate:0.00%    MPKI:0.00
PC:b8938     Total:459      MisBP:0   MisRate:0.00%    MPKI:0.00
PC:3efa0     Total:2435      MisBP:0   MisRate:0.00%    MPKI:0.00
PC:42d28     Total:229      MisBP:0   MisRate:0.00%    MPKI:0.00
PC:47a28     Total:2041      MisBP:0   MisRate:0.00%    MPKI:0.00
PC:d478c     Total:12654      MisBP:0   MisRate:0.00%    MPKI:0.00
PC:3fe8d3b4     Total:3      MisBP:0   MisRate:0.00%    MPKI:0.00
PC:1fe44     Total:165      MisBP:0   MisRate:0.00%    MPKI:0.00
PC:47a20     Total:1755      MisBP:0   MisRate:0.00%    MPKI:0.00
PC:dbcd6     Total:728      MisBP:0   MisRate:0.00%    MPKI:0.00
PC:b344e     Total:215      MisBP:0   MisRate:0.00%    MPKI:0.00
PC:201be     Total:54      MisBP:0   MisRate:0.00%    MPKI:0.00
PC:3aedc     Total:199      MisBP:0   MisRate:0.00%    MPKI:0.00
PC:47a2c     Total:2041      MisBP:0   MisRate:0.00%    MPKI:0.00
PC:43292     Total:4646      MisBP:0   MisRate:0.00%    MPKI:0.00
PC:200c4     Total:31      MisBP:0   MisRate:0.00%    MPKI:0.00
PC:22f55a4     Total:1      MisBP:0   MisRate:0.00%    MPKI:0.00
PC:3ff59df8     Total:2      MisBP:0   MisRate:0.00%    MPKI:0.00
PC:42d1e     Total:136      MisBP:0   MisRate:0.00%    MPKI:0.00
PC:419c8     Total:4500      MisBP:0   MisRate:0.00%    MPKI:0.00
PC:bf03a     Total:19242      MisBP:0   MisRate:0.00%    MPKI:0.00
PC:419c0     Total:4513      MisBP:0   MisRate:0.00%    MPKI:0.00
PC:bf032     Total:19557      MisBP:0   MisRate:0.00%    MPKI:0.00
PC:47a3c     Total:2029      MisBP:0   MisRate:0.00%    MPKI:0.00
PC:3ffe5628     Total:1      MisBP:0   MisRate:0.00%    MPKI:0.00
PC:47a44     Total:10116      MisBP:0   MisRate:0.00%    MPKI:0.00
PC:bb65e     Total:676      MisBP:0   MisRate:0.00%    MPKI:0.00
PC:3fe928ec     Total:1      MisBP:0   MisRate:0.00%    MPKI:0.00
PC:1fe60     Total:192      MisBP:0   MisRate:0.00%    MPKI:0.00
PC:47a40     Total:1679      MisBP:0   MisRate:0.00%    MPKI:0.00
PC:d47a4     Total:269      MisBP:0   MisRate:0.00%    MPKI:0.00
PC:3fe8d3cc     Total:2      MisBP:0   MisRate:0.00%    MPKI:0.00
PC:d4174     Total:7548      MisBP:0   MisRate:0.00%    MPKI:0.00
PC:3b478     Total:236      MisBP:0   MisRate:0.00%    MPKI:0.00
PC:d4170     Total:7548      MisBP:0   MisRate:0.00%    MPKI:0.00
PC:47a38     Total:2030      MisBP:0   MisRate:0.00%    MPKI:0.00
PC:d479c     Total:272      MisBP:0   MisRate:0.00%    MPKI:0.00
PC:3fe8d3c4     Total:2      MisBP:0   MisRate:0.00%    MPKI:0.00
PC:1fe54     Total:165      MisBP:0   MisRate:0.00%    MPKI:0.00
PC:d4168     Total:7406      MisBP:0   MisRate:0.00%    MPKI:0.00
PC:47a30     Total:2040      MisBP:0   MisRate:0.00%    MPKI:0.00
PC:d4164     Total:7406      MisBP:0   MisRate:0.00%    MPKI:0.00
PC:bb40e     Total:1853      MisBP:0   MisRate:0.00%    MPKI:0.00
PC:c0504     Total:14576      MisBP:0   MisRate:0.00%    MPKI:0.00
PC:bb4c2     Total:38327      MisBP:0   MisRate:0.00%    MPKI:0.00
PC:4a5c8     Total:425      MisBP:0   MisRate:0.00%    MPKI:0.00
PC:4a5c4     Total:425      MisBP:0   MisRate:0.00%    MPKI:0.00
PC:4a5c0     Total:425      MisBP:0   MisRate:0.00%    MPKI:0.00
PC:2021e     Total:1      MisBP:0   MisRate:0.00%    MPKI:0.00
PC:2021c     Total:1      MisBP:0   MisRate:0.00%    MPKI:0.00
PC:d6880     Total:2      MisBP:0   MisRate:0.00%    MPKI:0.00
PC:47e20     Total:12245      MisBP:0   MisRate:0.00%    MPKI:0.00
PC:22418     Total:33      MisBP:0   MisRate:0.00%    MPKI:0.00
PC:41a76     Total:2459      MisBP:0   MisRate:0.00%    MPKI:0.00
PC:da8f0     Total:1      MisBP:0   MisRate:0.00%    MPKI:0.00
PC:22f976c     Total:1      MisBP:0   MisRate:0.00%    MPKI:0.00
PC:3f0f2     Total:7302      MisBP:0   MisRate:0.00%    MPKI:0.00
PC:22a4e5c     Total:2      MisBP:0   MisRate:0.00%    MPKI:0.00
PC:3fe8d398     Total:2      MisBP:0   MisRate:0.00%    MPKI:0.00
PC:1fe28     Total:25      MisBP:0   MisRate:0.00%    MPKI:0.00
PC:47e1c     Total:1784      MisBP:0   MisRate:0.00%    MPKI:0.00
PC:b2462     Total:106      MisBP:0   MisRate:0.00%    MPKI:0.00
PC:1f496     Total:10      MisBP:0   MisRate:0.00%    MPKI:0.00
PC:d5afa     Total:11932      MisBP:0   MisRate:0.00%    MPKI:0.00
PC:d3dde     Total:1      MisBP:0   MisRate:0.00%    MPKI:0.00
PC:3ff75b14     Total:1      MisBP:0   MisRate:0.00%    MPKI:0.00
PC:5172a     Total:579      MisBP:0   MisRate:0.00%    MPKI:0.00
PC:23085a4     Total:1      MisBP:0   MisRate:0.00%    MPKI:0.00
PC:22410     Total:34      MisBP:0   MisRate:0.00%    MPKI:0.00
PC:42cf6     Total:119      MisBP:0   MisRate:0.00%    MPKI:0.00
PC:42cec     Total:119      MisBP:0   MisRate:0.00%    MPKI:0.00
PC:d417c     Total:7585      MisBP:0   MisRate:0.00%    MPKI:0.00
PC:20088     Total:10      MisBP:0   MisRate:0.00%    MPKI:0.00
PC:22f5568     Total:1      MisBP:0   MisRate:0.00%    MPKI:0.00
PC:42ce8     Total:595      MisBP:0   MisRate:0.00%    MPKI:0.00
PC:b245e     Total:106      MisBP:0   MisRate:0.00%    MPKI:0.00
PC:bb4c4     Total:38327      MisBP:0   MisRate:0.00%    MPKI:0.00
PC:41b2c     Total:602      MisBP:0   MisRate:0.00%    MPKI:0.00
PC:4a5ce     Total:488      MisBP:0   MisRate:0.00%    MPKI:0.00
PC:3fe2185c     Total:1      MisBP:0   MisRate:0.00%    MPKI:0.00
PC:2300188     Total:1      MisBP:0   MisRate:0.00%    MPKI:0.00
PC:41b28     Total:602      MisBP:0   MisRate:0.00%    MPKI:0.00
PC:1f592     Total:135      MisBP:0   MisRate:0.00%    MPKI:0.00
PC:23130d8     Total:1      MisBP:0   MisRate:0.00%    MPKI:0.00
PC:42dd8     Total:384      MisBP:0   MisRate:0.00%    MPKI:0.00
PC:b254e     Total:227      MisBP:0   MisRate:0.00%    MPKI:0.00
PC:bb408     Total:4219      MisBP:0   MisRate:0.00%    MPKI:0.00
PC:da8ea     Total:1      MisBP:0   MisRate:0.00%    MPKI:0.00
PC:b2062     Total:4      MisBP:0   MisRate:0.00%    MPKI:0.00
PC:3f0ec     Total:7302      MisBP:0   MisRate:0.00%    MPKI:0.00
PC:bb4c0     Total:38328      MisBP:0   MisRate:0.00%    MPKI:0.00
PC:47e16     Total:1963      MisBP:0   MisRate:0.00%    MPKI:0.00
PC:52038     Total:2197      MisBP:0   MisRate:0.00%    MPKI:0.00
PC:23130d4     Total:1      MisBP:0   MisRate:0.00%    MPKI:0.00
PC:c0446     Total:2550      MisBP:0   MisRate:0.00%    MPKI:0.00
PC:d488a     Total:18375      MisBP:0   MisRate:0.00%    MPKI:0.00
PC:1bf1a     Total:19      MisBP:0   MisRate:0.00%    MPKI:0.00
PC:3f0e8     Total:29664      MisBP:0   MisRate:0.00%    MPKI:0.00
PC:2300184     Total:1      MisBP:0   MisRate:0.00%    MPKI:0.00
PC:bee60     Total:107652      MisBP:0   MisRate:0.00%    MPKI:0.00
PC:bb4d4     Total:38326      MisBP:0   MisRate:0.00%    MPKI:0.00
PC:c051e     Total:14558      MisBP:0   MisRate:0.00%    MPKI:0.00
PC:bb4dc     Total:38114      MisBP:0   MisRate:0.00%    MPKI:0.00
PC:bb4da     Total:38114      MisBP:0   MisRate:0.00%    MPKI:0.00
PC:c051a     Total:14558      MisBP:0   MisRate:0.00%    MPKI:0.00
PC:bb4d8     Total:38114      MisBP:0   MisRate:0.00%    MPKI:0.00
PC:41b40     Total:710      MisBP:0   MisRate:0.00%    MPKI:0.00
PC:c0518     Total:14574      MisBP:0   MisRate:0.00%    MPKI:0.00
PC:bb4d6     Total:38114      MisBP:0   MisRate:0.00%    MPKI:0.00
PC:c0516     Total:14574      MisBP:0   MisRate:0.00%    MPKI:0.00
PC:b9ee4     Total:51      MisBP:0   MisRate:0.00%    MPKI:0.00
PC:41b3c     Total:605      MisBP:0   MisRate:0.00%    MPKI:0.00
PC:c0514     Total:14575      MisBP:0   MisRate:0.00%    MPKI:0.00
PC:bb4d2     Total:38326      MisBP:0   MisRate:0.00%    MPKI:0.00
PC:41b3a     Total:605      MisBP:0   MisRate:0.00%    MPKI:0.00
PC:bb4d0     Total:38326      MisBP:0   MisRate:0.00%    MPKI:0.00
PC:41b38     Total:605      MisBP:0   MisRate:0.00%    MPKI:0.00
PC:bb4cc     Total:38326      MisBP:0   MisRate:0.00%    MPKI:0.00
PC:bb4c8     Total:38327      MisBP:0   MisRate:0.00%    MPKI:0.00
PC:1fe6c     Total:187      MisBP:0   MisRate:0.00%    MPKI:0.00
PC:416f8     Total:198      MisBP:0   MisRate:0.00%    MPKI:0.00
PC:416ec     Total:198      MisBP:0   MisRate:0.00%    MPKI:0.00
PC:bb66e     Total:734      MisBP:0   MisRate:0.00%    MPKI:0.00
PC:3fe928fc     Total:1      MisBP:0   MisRate:0.00%    MPKI:0.00
PC:d47b8     Total:262      MisBP:0   MisRate:0.00%    MPKI:0.00
PC:3fe8d3e0     Total:2      MisBP:0   MisRate:0.00%    MPKI:0.00
PC:1fe70     Total:119      MisBP:0   MisRate:0.00%    MPKI:0.00
PC:bb66a     Total:735      MisBP:0   MisRate:0.00%    MPKI:0.00
PC:3fe928f8     Total:1      MisBP:0   MisRate:0.00%    MPKI:0.00
PC:41702     Total:196      MisBP:0   MisRate:0.00%    MPKI:0.00
PC:d47b0     Total:262      MisBP:0   MisRate:0.00%    MPKI:0.00
PC:3fe8d3d8     Total:2      MisBP:0   MisRate:0.00%    MPKI:0.00
PC:1fe68     Total:192      MisBP:0   MisRate:0.00%    MPKI:0.00
PC:bb662     Total:1418      MisBP:0   MisRate:0.00%    MPKI:0.00
PC:3fe928f0     Total:1      MisBP:0   MisRate:0.00%    MPKI:0.00
PC:d47ac     Total:262      MisBP:0   MisRate:0.00%    MPKI:0.00
PC:3fe8d3d4     Total:2      MisBP:0   MisRate:0.00%    MPKI:0.00
PC:1fe64     Total:192      MisBP:0   MisRate:0.00%    MPKI:0.00
PC:1feba     Total:184      MisBP:0   MisRate:0.00%    MPKI:0.00
PC:3ffa2b08     Total:1      MisBP:0   MisRate:0.00%    MPKI:0.00
PC:bee5c     Total:107825      MisBP:0   MisRate:0.00%    MPKI:0.00
PC:b9ee0     Total:51      MisBP:0   MisRate:0.00%    MPKI:0.00
PC:3ffa2b04     Total:1      MisBP:0   MisRate:0.00%    MPKI:0.00
PC:bee58     Total:107825      MisBP:0   MisRate:0.00%    MPKI:0.00
PC:bef1e     Total:16      MisBP:0   MisRate:0.00%    MPKI:0.00
PC:b9edc     Total:561      MisBP:0   MisRate:0.00%    MPKI:0.00
PC:3ffa2b00     Total:1      MisBP:0   MisRate:0.00%    MPKI:0.00
PC:bee3a     Total:8274      MisBP:0   MisRate:0.00%    MPKI:0.00
PC:b1b8a     Total:215      MisBP:0   MisRate:0.00%    MPKI:0.00
PC:4170e     Total:196      MisBP:0   MisRate:0.00%    MPKI:0.00
PC:bb26c     Total:335      MisBP:0   MisRate:0.00%    MPKI:0.00
PC:418d4     Total:491      MisBP:0   MisRate:0.00%    MPKI:0.00
PC:bee30     Total:17136      MisBP:0   MisRate:0.00%    MPKI:0.00
PC:d47f8     Total:1053      MisBP:0   MisRate:0.00%    MPKI:0.00
PC:1feb0     Total:186      MisBP:0   MisRate:0.00%    MPKI:0.00
PC:22d6e0c     Total:1      MisBP:0   MisRate:0.00%    MPKI:0.00
PC:1ff92     Total:3      MisBP:0   MisRate:0.00%    MPKI:0.00
PC:47210     Total:2580      MisBP:0   MisRate:0.00%    MPKI:0.00
PC:ba802     Total:2364      MisBP:0   MisRate:0.00%    MPKI:0.00
PC:3ffad648     Total:1      MisBP:0   MisRate:0.00%    MPKI:0.00
PC:2046c     Total:33      MisBP:0   MisRate:0.00%    MPKI:0.00
PC:4224a     Total:496      MisBP:0   MisRate:0.00%    MPKI:0.00
PC:da248     Total:510      MisBP:0   MisRate:0.00%    MPKI:0.00
PC:b19c0     Total:13      MisBP:0   MisRate:0.00%    MPKI:0.00
PC:3ff80fc0     Total:1      MisBP:0   MisRate:0.00%    MPKI:0.00
PC:44ace     Total:2      MisBP:0   MisRate:0.00%    MPKI:0.00
PC:3fe6ce6c     Total:1      MisBP:0   MisRate:0.00%    MPKI:0.00
PC:b2468     Total:106      MisBP:0   MisRate:0.00%    MPKI:0.00
PC:ba7fe     Total:2364      MisBP:0   MisRate:0.00%    MPKI:0.00
PC:2046a     Total:33      MisBP:0   MisRate:0.00%    MPKI:0.00
PC:45888     Total:1465      MisBP:0   MisRate:0.00%    MPKI:0.00
PC:20466     Total:33      MisBP:0   MisRate:0.00%    MPKI:0.00
PC:f016c     Total:29      MisBP:0   MisRate:0.00%    MPKI:0.00
PC:458a8     Total:264      MisBP:0   MisRate:0.00%    MPKI:0.00
PC:3b686     Total:411      MisBP:0   MisRate:0.00%    MPKI:0.00
PC:20486     Total:11      MisBP:0   MisRate:0.00%    MPKI:0.00
PC:c1bc4     Total:6103      MisBP:0   MisRate:0.00%    MPKI:0.00
PC:4721a     Total:2574      MisBP:0   MisRate:0.00%    MPKI:0.00
PC:babae     Total:4      MisBP:0   MisRate:0.00%    MPKI:0.00
PC:af3ee     Total:361      MisBP:0   MisRate:0.00%    MPKI:0.00
PC:173f0     Total:262      MisBP:0   MisRate:0.00%    MPKI:0.00
PC:40e42     Total:2553      MisBP:0   MisRate:0.00%    MPKI:0.00
PC:ba7da     Total:415      MisBP:0   MisRate:0.00%    MPKI:0.00
PC:d3cf6     Total:21911      MisBP:0   MisRate:0.00%    MPKI:0.00
PC:babac     Total:4      MisBP:0   MisRate:0.00%    MPKI:0.00
PC:f015c     Total:120      MisBP:0   MisRate:0.00%    MPKI:0.00
PC:20476     Total:33      MisBP:0   MisRate:0.00%    MPKI:0.00
PC:1f9a4     Total:43      MisBP:0   MisRate:0.00%    MPKI:0.00
PC:ba808     Total:2363      MisBP:0   MisRate:0.00%    MPKI:0.00
PC:45896     Total:1436      MisBP:0   MisRate:0.00%    MPKI:0.00
PC:3b674     Total:7586      MisBP:0   MisRate:0.00%    MPKI:0.00
PC:20474     Total:33      MisBP:0   MisRate:0.00%    MPKI:0.00
PC:45892     Total:1465      MisBP:0   MisRate:0.00%    MPKI:0.00
PC:3b670     Total:7587      MisBP:0   MisRate:0.00%    MPKI:0.00
PC:20470     Total:33      MisBP:0   MisRate:0.00%    MPKI:0.00
PC:42cf2     Total:119      MisBP:0   MisRate:0.00%    MPKI:0.00
PC:4af98     Total:2700      MisBP:0   MisRate:0.00%    MPKI:0.00
PC:419d4     Total:1140      MisBP:0   MisRate:0.00%    MPKI:0.00
PC:40d54     Total:60392      MisBP:0   MisRate:0.00%    MPKI:0.00
PC:ba6ec     Total:14953      MisBP:0   MisRate:0.00%    MPKI:0.00
PC:ba8b2     Total:2422      MisBP:0   MisRate:0.00%    MPKI:0.00
PC:3ffad6f8     Total:1      MisBP:0   MisRate:0.00%    MPKI:0.00
PC:bb368     Total:14506      MisBP:0   MisRate:0.00%    MPKI:0.00
PC:419d0     Total:2280      MisBP:0   MisRate:0.00%    MPKI:0.00
PC:55e14     Total:10550      MisBP:0   MisRate:0.00%    MPKI:0.00
PC:40d76     Total:659      MisBP:0   MisRate:0.00%    MPKI:0.00
PC:bb36c     Total:14390      MisBP:0   MisRate:0.00%    MPKI:0.00
PC:baba6     Total:2      MisBP:0   MisRate:0.00%    MPKI:0.00
PC:3fe03b68     Total:1      MisBP:0   MisRate:0.00%    MPKI:0.00
PC:baba2     Total:2      MisBP:0   MisRate:0.00%    MPKI:0.00
PC:4af3c     Total:2625      MisBP:0   MisRate:0.00%    MPKI:0.00
PC:ba6b2     Total:16557      MisBP:0   MisRate:0.00%    MPKI:0.00
PC:3fe03b64     Total:1      MisBP:0   MisRate:0.00%    MPKI:0.00
PC:ba7ce     Total:415      MisBP:0   MisRate:0.00%    MPKI:0.00
PC:1f3a0     Total:13      MisBP:0   MisRate:0.00%    MPKI:0.00
PC:55e36     Total:8      MisBP:0   MisRate:0.00%    MPKI:0.00
PC:200a4     Total:59      MisBP:0   MisRate:0.00%    MPKI:0.00
PC:22f5584     Total:2      MisBP:0   MisRate:0.00%    MPKI:0.00
PC:f0168     Total:29      MisBP:0   MisRate:0.00%    MPKI:0.00
PC:458a4     Total:264      MisBP:0   MisRate:0.00%    MPKI:0.00
PC:3b682     Total:411      MisBP:0   MisRate:0.00%    MPKI:0.00
PC:20482     Total:11      MisBP:0   MisRate:0.00%    MPKI:0.00
PC:c1bc0     Total:6103      MisBP:0   MisRate:0.00%    MPKI:0.00
PC:ba8d4     Total:161      MisBP:0   MisRate:0.00%    MPKI:0.00
PC:bb38a     Total:54234      MisBP:0   MisRate:0.00%    MPKI:0.00
PC:1f3b0     Total:20      MisBP:0   MisRate:0.00%    MPKI:0.00
PC:419f2     Total:4279      MisBP:0   MisRate:0.00%    MPKI:0.00
PC:bb388     Total:54237      MisBP:0   MisRate:0.00%    MPKI:0.00
PC:bcd6a     Total:63072      MisBP:0   MisRate:0.00%    MPKI:0.00
PC:205a8     Total:1      MisBP:0   MisRate:0.00%    MPKI:0.00
PC:3fe2a2e0     Total:1      MisBP:0   MisRate:0.00%    MPKI:0.00
PC:459ca     Total:4200      MisBP:0   MisRate:0.00%    MPKI:0.00
PC:3e1ca     Total:2973738      MisBP:0   MisRate:0.00%    MPKI:0.00
PC:c1d84     Total:8727      MisBP:0   MisRate:0.00%    MPKI:0.00
PC:47a0e     Total:1990      MisBP:0   MisRate:0.00%    MPKI:0.00
PC:223fa     Total:43      MisBP:0   MisRate:0.00%    MPKI:0.00
PC:bfed4     Total:12383      MisBP:0   MisRate:0.00%    MPKI:0.00
PC:3ff1ad1c     Total:1      MisBP:0   MisRate:0.00%    MPKI:0.00
PC:3ff579e8     Total:1      MisBP:0   MisRate:0.00%    MPKI:0.00
PC:bb52c     Total:120      MisBP:0   MisRate:0.00%    MPKI:0.00
PC:c0456     Total:32692      MisBP:0   MisRate:0.00%    MPKI:0.00
PC:d489a     Total:1      MisBP:0   MisRate:0.00%    MPKI:0.00
PC:d4776     Total:12627      MisBP:0   MisRate:0.00%    MPKI:0.00
PC:1fe2e     Total:25      MisBP:0   MisRate:0.00%    MPKI:0.00
PC:d3dc8     Total:145      MisBP:0   MisRate:0.00%    MPKI:0.00
PC:d5718     Total:82      MisBP:0   MisRate:0.00%    MPKI:0.00
PC:bb278     Total:62283      MisBP:0   MisRate:0.00%    MPKI:0.00
PC:418e0     Total:491      MisBP:0   MisRate:0.00%    MPKI:0.00
PC:bb73c     Total:211      MisBP:0   MisRate:0.00%    MPKI:0.00
PC:1ff3e     Total:69      MisBP:0   MisRate:0.00%    MPKI:0.00
PC:b9f42     Total:14      MisBP:0   MisRate:0.00%    MPKI:0.00
PC:3ff5bc78     Total:1      MisBP:0   MisRate:0.00%    MPKI:0.00
PC:42de0     Total:384      MisBP:0   MisRate:0.00%    MPKI:0.00
PC:b2556     Total:227      MisBP:0   MisRate:0.00%    MPKI:0.00
PC:1ff46     Total:2      MisBP:0   MisRate:0.00%    MPKI:0.00
PC:230019c     Total:1      MisBP:0   MisRate:0.00%    MPKI:0.00
PC:1f370     Total:10      MisBP:0   MisRate:0.00%    MPKI:0.00
PC:d3cb8     Total:16484      MisBP:0   MisRate:0.00%    MPKI:0.00
PC:3ffbc8dc     Total:1      MisBP:0   MisRate:0.00%    MPKI:0.00
PC:bab6e     Total:2629      MisBP:0   MisRate:0.00%    MPKI:0.00
PC:411d6     Total:198      MisBP:0   MisRate:0.00%    MPKI:0.00
PC:51604     Total:15804      MisBP:0   MisRate:0.00%    MPKI:0.00
PC:d5720     Total:1      MisBP:0   MisRate:0.00%    MPKI:0.00
PC:3ef64     Total:2216      MisBP:0   MisRate:0.00%    MPKI:0.00
PC:c0452     Total:65385      MisBP:0   MisRate:0.00%    MPKI:0.00
PC:4a536     Total:200      MisBP:0   MisRate:0.00%    MPKI:0.00
PC:3b470     Total:243      MisBP:0   MisRate:0.00%    MPKI:0.00
PC:bf02a     Total:78234      MisBP:0   MisRate:0.00%    MPKI:0.00
PC:b9f4a     Total:14      MisBP:0   MisRate:0.00%    MPKI:0.00
PC:3ff5bc80     Total:1      MisBP:0   MisRate:0.00%    MPKI:0.00
PC:b8956     Total:1810      MisBP:0   MisRate:0.00%    MPKI:0.00
PC:3feb846c     Total:1      MisBP:0   MisRate:0.00%    MPKI:0.00
PC:45368     Total:7636      MisBP:0   MisRate:0.00%    MPKI:0.00
PC:41c2c     Total:1226      MisBP:0   MisRate:0.00%    MPKI:0.00
PC:dbcb6     Total:728      MisBP:0   MisRate:0.00%    MPKI:0.00
PC:3b476     Total:236      MisBP:0   MisRate:0.00%    MPKI:0.00
PC:bf030     Total:19557      MisBP:0   MisRate:0.00%    MPKI:0.00
PC:bcd62     Total:64978      MisBP:0   MisRate:0.00%    MPKI:0.00
PC:bb364     Total:14506      MisBP:0   MisRate:0.00%    MPKI:0.00
PC:baab8     Total:1      MisBP:0   MisRate:0.00%    MPKI:0.00
PC:4db00     Total:18487      MisBP:0   MisRate:0.00%    MPKI:0.00
PC:db8dc     Total:1      MisBP:0   MisRate:0.00%    MPKI:0.00
PC:40f5a     Total:5133      MisBP:0   MisRate:0.00%    MPKI:0.00
PC:41b88     Total:1      MisBP:0   MisRate:0.00%    MPKI:0.00
PC:bb5c4     Total:129      MisBP:0   MisRate:0.00%    MPKI:0.00
PC:bb362     Total:14506      MisBP:0   MisRate:0.00%    MPKI:0.00
PC:419ca     Total:4470      MisBP:0   MisRate:0.00%    MPKI:0.00
PC:d470a     Total:784      MisBP:0   MisRate:0.00%    MPKI:0.00
PC:1fdc2     Total:233      MisBP:0   MisRate:0.00%    MPKI:0.00
PC:479a2     Total:1159      MisBP:0   MisRate:0.00%    MPKI:0.00
PC:af3f0     Total:361      MisBP:0   MisRate:0.00%    MPKI:0.00
PC:173f2     Total:262      MisBP:0   MisRate:0.00%    MPKI:0.00
PC:515f8     Total:66407      MisBP:0   MisRate:0.00%    MPKI:0.00
PC:d4896     Total:1      MisBP:0   MisRate:0.00%    MPKI:0.00
PC:1bf26     Total:12      MisBP:0   MisRate:0.00%    MPKI:0.00
PC:3f0f4     Total:7301      MisBP:0   MisRate:0.00%    MPKI:0.00
PC:2300190     Total:2      MisBP:0   MisRate:0.00%    MPKI:0.00
PC:47a0a     Total:1183      MisBP:0   MisRate:0.00%    MPKI:0.00
PC:1f364     Total:9      MisBP:0   MisRate:0.00%    MPKI:0.00
PC:d3cac     Total:16600      MisBP:0   MisRate:0.00%    MPKI:0.00
PC:3ffbc8d0     Total:1      MisBP:0   MisRate:0.00%    MPKI:0.00
PC:411ca     Total:198      MisBP:0   MisRate:0.00%    MPKI:0.00
PC:bab9e     Total:2      MisBP:0   MisRate:0.00%    MPKI:0.00
PC:d5714     Total:82      MisBP:0   MisRate:0.00%    MPKI:0.00
PC:d4882     Total:18479      MisBP:0   MisRate:0.00%    MPKI:0.00
PC:b9f3e     Total:45      MisBP:0   MisRate:0.00%    MPKI:0.00
PC:3ff5bc74     Total:1      MisBP:0   MisRate:0.00%    MPKI:0.00
PC:b894a     Total:455      MisBP:0   MisRate:0.00%    MPKI:0.00
PC:3feb8460     Total:1      MisBP:0   MisRate:0.00%    MPKI:0.00
PC:4535c     Total:7636      MisBP:0   MisRate:0.00%    MPKI:0.00
PC:bb520     Total:3130      MisBP:0   MisRate:0.00%    MPKI:0.00
PC:babb2     Total:7      MisBP:0   MisRate:0.00%    MPKI:0.00
PC:40e1a     Total:2434      MisBP:0   MisRate:0.00%    MPKI:0.00
PC:ba7b2     Total:16981      MisBP:0   MisRate:0.00%    MPKI:0.00
PC:ba978     Total:3      MisBP:0   MisRate:0.00%    MPKI:0.00
PC:40fe0     Total:271      MisBP:0   MisRate:0.00%    MPKI:0.00
PC:3aecc     Total:51      MisBP:0   MisRate:0.00%    MPKI:0.00
PC:bab84     Total:45      MisBP:0   MisRate:0.00%    MPKI:0.00
PC:411ec     Total:214      MisBP:0   MisRate:0.00%    MPKI:0.00
PC:3fe737ac     Total:1      MisBP:0   MisRate:0.00%    MPKI:0.00
PC:1f3b4     Total:29      MisBP:0   MisRate:0.00%    MPKI:0.00
PC:45e5c     Total:64911      MisBP:0   MisRate:0.00%    MPKI:0.00
PC:1f572     Total:44      MisBP:0   MisRate:0.00%    MPKI:0.00
PC:47dfa     Total:954      MisBP:0   MisRate:0.00%    MPKI:0.00
PC:5201c     Total:592      MisBP:0   MisRate:0.00%    MPKI:0.00
PC:51806     Total:10514      MisBP:0   MisRate:0.00%    MPKI:0.00
PC:517fc     Total:2105      MisBP:0   MisRate:0.00%    MPKI:0.00
PC:af3d2     Total:456      MisBP:0   MisRate:0.00%    MPKI:0.00
PC:540a0     Total:18      MisBP:0   MisRate:0.00%    MPKI:0.00
PC:173d4     Total:211      MisBP:0   MisRate:0.00%    MPKI:0.00
PC:40e26     Total:2482      MisBP:0   MisRate:0.00%    MPKI:0.00
PC:bab86     Total:45      MisBP:0   MisRate:0.00%    MPKI:0.00
PC:ba6c8     Total:16354      MisBP:0   MisRate:0.00%    MPKI:0.00
PC:40d30     Total:10011      MisBP:0   MisRate:0.00%    MPKI:0.00
PC:bab88     Total:45      MisBP:0   MisRate:0.00%    MPKI:0.00
PC:411f0     Total:213      MisBP:0   MisRate:0.00%    MPKI:0.00
PC:3fe737b0     Total:1      MisBP:0   MisRate:0.00%    MPKI:0.00
PC:3aece     Total:51      MisBP:0   MisRate:0.00%    MPKI:0.00
PC:1f388     Total:9      MisBP:0   MisRate:0.00%    MPKI:0.00
PC:d3cd0     Total:15785      MisBP:0   MisRate:0.00%    MPKI:0.00
PC:3ffbc8f4     Total:1      MisBP:0   MisRate:0.00%    MPKI:0.00
PC:c04e6     Total:22424      MisBP:0   MisRate:0.00%    MPKI:0.00
PC:45fa4     Total:2724      MisBP:0   MisRate:0.00%    MPKI:0.00
PC:d3d80     Total:213      MisBP:0   MisRate:0.00%    MPKI:0.00
PC:1f3b6     Total:29      MisBP:0   MisRate:0.00%    MPKI:0.00
PC:d3cfe     Total:21911      MisBP:0   MisRate:0.00%    MPKI:0.00
PC:babb4     Total:42      MisBP:0   MisRate:0.00%    MPKI:0.00
PC:4121c     Total:2450      MisBP:0   MisRate:0.00%    MPKI:0.00
PC:af3c6     Total:498      MisBP:0   MisRate:0.00%    MPKI:0.00
PC:173c8     Total:471      MisBP:0   MisRate:0.00%    MPKI:0.00
PC:b9220     Total:721      MisBP:0   MisRate:0.00%    MPKI:0.00
PC:23084f8     Total:1      MisBP:0   MisRate:0.00%    MPKI:0.00
PC:ba752     Total:14545      MisBP:0   MisRate:0.00%    MPKI:0.00
PC:40dba     Total:3411      MisBP:0   MisRate:0.00%    MPKI:0.00
PC:b1ec8     Total:1220      MisBP:0   MisRate:0.00%    MPKI:0.00
PC:2074e     Total:14      MisBP:0   MisRate:0.00%    MPKI:0.00
PC:3ff78ae8     Total:1      MisBP:0   MisRate:0.00%    MPKI:0.00
PC:45c32     Total:1871      MisBP:0   MisRate:0.00%    MPKI:0.00
PC:ab186     Total:5188      MisBP:0   MisRate:0.00%    MPKI:0.00
PC:3fe96858     Total:1      MisBP:0   MisRate:0.00%    MPKI:0.00
PC:3d23a     Total:3537      MisBP:0   MisRate:0.00%    MPKI:0.00
PC:40bf0     Total:22670      MisBP:0   MisRate:0.00%    MPKI:0.00
PC:51678     Total:75616      MisBP:0   MisRate:0.00%    MPKI:0.00
PC:3d234     Total:3537      MisBP:0   MisRate:0.00%    MPKI:0.00
PC:dbce6     Total:1      MisBP:0   MisRate:0.00%    MPKI:0.00
PC:b345e     Total:212      MisBP:0   MisRate:0.00%    MPKI:0.00
PC:4a56c     Total:27123      MisBP:0   MisRate:0.00%    MPKI:0.00
PC:2235c     Total:18      MisBP:0   MisRate:0.00%    MPKI:0.00
PC:ba35a     Total:1267      MisBP:0   MisRate:0.00%    MPKI:0.00
PC:d3d3c     Total:20784      MisBP:0   MisRate:0.00%    MPKI:0.00
PC:1f3f8     Total:12      MisBP:0   MisRate:0.00%    MPKI:0.00
PC:d3d40     Total:19524      MisBP:0   MisRate:0.00%    MPKI:0.00
PC:45f64     Total:1009      MisBP:0   MisRate:0.00%    MPKI:0.00
PC:134ba     Total:452      MisBP:0   MisRate:0.00%    MPKI:0.00
PC:ba760     Total:14474      MisBP:0   MisRate:0.00%    MPKI:0.00
PC:40dc8     Total:151      MisBP:0   MisRate:0.00%    MPKI:0.00
PC:b1ed6     Total:1220      MisBP:0   MisRate:0.00%    MPKI:0.00
PC:3fe89164     Total:1      MisBP:0   MisRate:0.00%    MPKI:0.00
PC:bb4a0     Total:40911      MisBP:0   MisRate:0.00%    MPKI:0.00
PC:4af52     Total:10992      MisBP:0   MisRate:0.00%    MPKI:0.00
PC:134b6     Total:476      MisBP:0   MisRate:0.00%    MPKI:0.00
PC:ba75c     Total:14488      MisBP:0   MisRate:0.00%    MPKI:0.00
PC:40dc4     Total:198      MisBP:0   MisRate:0.00%    MPKI:0.00
PC:c04d8     Total:35875      MisBP:0   MisRate:0.00%    MPKI:0.00
PC:1f3ea     Total:6      MisBP:0   MisRate:0.00%    MPKI:0.00
PC:45f56     Total:5378      MisBP:0   MisRate:0.00%    MPKI:0.00
PC:134ac     Total:538      MisBP:0   MisRate:0.00%    MPKI:0.00
PC:5167e     Total:75608      MisBP:0   MisRate:0.00%    MPKI:0.00
PC:3f1da     Total:894      MisBP:0   MisRate:0.00%    MPKI:0.00
PC:ba844     Total:54      MisBP:0   MisRate:0.00%    MPKI:0.00
PC:af458     Total:1031      MisBP:0   MisRate:0.00%    MPKI:0.00
PC:1745a     Total:539      MisBP:0   MisRate:0.00%    MPKI:0.00
PC:3fee1a18     Total:1      MisBP:0   MisRate:0.00%    MPKI:0.00
PC:4af30     Total:7295      MisBP:0   MisRate:0.00%    MPKI:0.00
PC:3fe03b58     Total:1      MisBP:0   MisRate:0.00%    MPKI:0.00
PC:42b6a     Total:198      MisBP:0   MisRate:0.00%    MPKI:0.00
PC:b22e0     Total:140      MisBP:0   MisRate:0.00%    MPKI:0.00
PC:3f42c     Total:34503      MisBP:0   MisRate:0.00%    MPKI:0.00
PC:40eac     Total:5227      MisBP:0   MisRate:0.00%    MPKI:0.00
PC:4e2a0     Total:13135      MisBP:0   MisRate:0.00%    MPKI:0.00
PC:d3cde     Total:15729      MisBP:0   MisRate:0.00%    MPKI:0.00
PC:bab94     Total:18      MisBP:0   MisRate:0.00%    MPKI:0.00
PC:411fc     Total:213      MisBP:0   MisRate:0.00%    MPKI:0.00
PC:3fe737bc     Total:1      MisBP:0   MisRate:0.00%    MPKI:0.00
PC:40eaa     Total:5227      MisBP:0   MisRate:0.00%    MPKI:0.00
PC:ba842     Total:54      MisBP:0   MisRate:0.00%    MPKI:0.00
PC:3ffad688     Total:1      MisBP:0   MisRate:0.00%    MPKI:0.00
PC:af456     Total:1031      MisBP:0   MisRate:0.00%    MPKI:0.00
PC:3f1de     Total:1393      MisBP:0   MisRate:0.00%    MPKI:0.00
PC:41206     Total:792      MisBP:0   MisRate:0.00%    MPKI:0.00
PC:4af38     Total:2635      MisBP:0   MisRate:0.00%    MPKI:0.00
PC:ba6ae     Total:16557      MisBP:0   MisRate:0.00%    MPKI:0.00
PC:3fe03b60     Total:1      MisBP:0   MisRate:0.00%    MPKI:0.00
PC:42b6e     Total:198      MisBP:0   MisRate:0.00%    MPKI:0.00
PC:b22e4     Total:1      MisBP:0   MisRate:0.00%    MPKI:0.00
PC:b9f0e     Total:39      MisBP:0   MisRate:0.00%    MPKI:0.00
PC:3ff5bc44     Total:1      MisBP:0   MisRate:0.00%    MPKI:0.00
PC:3f430     Total:34493      MisBP:0   MisRate:0.00%    MPKI:0.00
PC:3fe9ab28     Total:1      MisBP:0   MisRate:0.00%    MPKI:0.00
PC:4e2a4     Total:2627      MisBP:0   MisRate:0.00%    MPKI:0.00
PC:1f39a     Total:72      MisBP:0   MisRate:0.00%    MPKI:0.00
PC:d3ce2     Total:15729      MisBP:0   MisRate:0.00%    MPKI:0.00
PC:bab98     Total:2      MisBP:0   MisRate:0.00%    MPKI:0.00
PC:41200     Total:594      MisBP:0   MisRate:0.00%    MPKI:0.00
PC:1f398     Total:73      MisBP:0   MisRate:0.00%    MPKI:0.00
PC:bab96     Total:2      MisBP:0   MisRate:0.00%    MPKI:0.00
PC:411fe     Total:213      MisBP:0   MisRate:0.00%    MPKI:0.00
PC:40e20     Total:2487      MisBP:0   MisRate:0.00%    MPKI:0.00
PC:3aed6     Total:4      MisBP:0   MisRate:0.00%    MPKI:0.00
PC:1f3be     Total:42      MisBP:0   MisRate:0.00%    MPKI:0.00
PC:babbc     Total:14585      MisBP:0   MisRate:0.00%    MPKI:0.00
PC:41224     Total:408      MisBP:0   MisRate:0.00%    MPKI:0.00
PC:3f424     Total:34591      MisBP:0   MisRate:0.00%    MPKI:0.00
PC:5401e     Total:5018      MisBP:0   MisRate:0.00%    MPKI:0.00
PC:af350     Total:117      MisBP:0   MisRate:0.00%    MPKI:0.00
PC:3aed4     Total:4      MisBP:0   MisRate:0.00%    MPKI:0.00
PC:45e62     Total:9228      MisBP:0   MisRate:0.00%    MPKI:0.00
PC:16fbd8     Total:4      MisBP:0   MisRate:0.00%    MPKI:0.00
PC:ba7b8     Total:2014      MisBP:0   MisRate:0.00%    MPKI:0.00
PC:3aed2     Total:4      MisBP:0   MisRate:0.00%    MPKI:0.00
PC:d3d02     Total:20613      MisBP:0   MisRate:0.00%    MPKI:0.00
PC:babb8     Total:14591      MisBP:0   MisRate:0.00%    MPKI:0.00
PC:41220     Total:2204      MisBP:0   MisRate:0.00%    MPKI:0.00
PC:af47a     Total:1505      MisBP:0   MisRate:0.00%    MPKI:0.00
PC:1747c     Total:1415      MisBP:0   MisRate:0.00%    MPKI:0.00
PC:3fe9ab4c     Total:1      MisBP:0   MisRate:0.00%    MPKI:0.00
PC:45324     Total:7647      MisBP:0   MisRate:0.00%    MPKI:0.00
PC:4af2e     Total:7295      MisBP:0   MisRate:0.00%    MPKI:0.00
PC:3f42a     Total:34549      MisBP:0   MisRate:0.00%    MPKI:0.00
PC:54024     Total:4896      MisBP:0   MisRate:0.00%    MPKI:0.00
PC:16fbdc     Total:12      MisBP:0   MisRate:0.00%    MPKI:0.00
PC:3aeda     Total:49794      MisBP:0   MisRate:0.00%    MPKI:0.00
PC:42b66     Total:1393      MisBP:0   MisRate:0.00%    MPKI:0.00
PC:bee82     Total:25465      MisBP:0   MisRate:0.00%    MPKI:0.00
PC:b9f06     Total:39      MisBP:0   MisRate:0.00%    MPKI:0.00
PC:3ff5bc3c     Total:1      MisBP:0   MisRate:0.00%    MPKI:0.00
PC:3f100     Total:5217      MisBP:0   MisRate:0.00%    MPKI:0.00
PC:54022     Total:4896      MisBP:0   MisRate:0.00%    MPKI:0.00
PC:3aed8     Total:4      MisBP:0   MisRate:0.00%    MPKI:0.00
PC:d471a     Total:797      MisBP:0   MisRate:0.00%    MPKI:0.00
PC:1fdd2     Total:68      MisBP:0   MisRate:0.00%    MPKI:0.00
PC:479b2     Total:2169      MisBP:0   MisRate:0.00%    MPKI:0.00
PC:3f426     Total:34581      MisBP:0   MisRate:0.00%    MPKI:0.00
PC:54020     Total:4896      MisBP:0   MisRate:0.00%    MPKI:0.00
PC:af352     Total:1054      MisBP:0   MisRate:0.00%    MPKI:0.00
PC:be674     Total:34      MisBP:0   MisRate:0.00%    MPKI:0.00
PC:4aefe     Total:6400      MisBP:0   MisRate:0.00%    MPKI:0.00
PC:3e164     Total:499874      MisBP:0   MisRate:0.00%    MPKI:0.00
PC:3fe5c2e0     Total:2      MisBP:0   MisRate:0.00%    MPKI:0.00
PC:bb7d6     Total:3144      MisBP:0   MisRate:0.00%    MPKI:0.00
PC:1ffd8     Total:11      MisBP:0   MisRate:0.00%    MPKI:0.00
PC:22f54b8     Total:1      MisBP:0   MisRate:0.00%    MPKI:0.00
PC:3ffe7ae8     Total:1      MisBP:0   MisRate:0.00%    MPKI:0.00
PC:45f7e     Total:3301      MisBP:0   MisRate:0.00%    MPKI:0.00
PC:d3d5a     Total:265      MisBP:0   MisRate:0.00%    MPKI:0.00
PC:3fe9aaf8     Total:1      MisBP:0   MisRate:0.00%    MPKI:0.00
PC:dccda     Total:362      MisBP:0   MisRate:0.00%    MPKI:0.00
PC:b9632     Total:14786      MisBP:0   MisRate:0.00%    MPKI:0.00
PC:af410     Total:1567      MisBP:0   MisRate:0.00%    MPKI:0.00
PC:17412     Total:71      MisBP:0   MisRate:0.00%    MPKI:0.00
PC:41002     Total:6685      MisBP:0   MisRate:0.00%    MPKI:0.00
PC:af422     Total:112      MisBP:0   MisRate:0.00%    MPKI:0.00
PC:b9644     Total:10845      MisBP:0   MisRate:0.00%    MPKI:0.00
PC:17424     Total:335      MisBP:0   MisRate:0.00%    MPKI:0.00
PC:3fe9aaf4     Total:1      MisBP:0   MisRate:0.00%    MPKI:0.00
PC:d473e     Total:795      MisBP:0   MisRate:0.00%    MPKI:0.00
PC:bb70a     Total:4890      MisBP:0   MisRate:0.00%    MPKI:0.00
PC:1ff08     Total:117      MisBP:0   MisRate:0.00%    MPKI:0.00
PC:bb706     Total:4890      MisBP:0   MisRate:0.00%    MPKI:0.00
PC:d484c     Total:22656      MisBP:0   MisRate:0.00%    MPKI:0.00
PC:1ff04     Total:117      MisBP:0   MisRate:0.00%    MPKI:0.00
PC:bb702     Total:4890      MisBP:0   MisRate:0.00%    MPKI:0.00
PC:bb700     Total:4890      MisBP:0   MisRate:0.00%    MPKI:0.00
PC:af45c     Total:70      MisBP:0   MisRate:0.00%    MPKI:0.00
PC:3fee1a1c     Total:1      MisBP:0   MisRate:0.00%    MPKI:0.00
PC:4aefa     Total:6400      MisBP:0   MisRate:0.00%    MPKI:0.00
PC:bb5f4     Total:142834      MisBP:0   MisRate:0.00%    MPKI:0.00
PC:be678     Total:17      MisBP:0   MisRate:0.00%    MPKI:0.00
PC:b9636     Total:14786      MisBP:0   MisRate:0.00%    MPKI:0.00
PC:af414     Total:1551      MisBP:0   MisRate:0.00%    MPKI:0.00
PC:41006     Total:6685      MisBP:0   MisRate:0.00%    MPKI:0.00
PC:af426     Total:109      MisBP:0   MisRate:0.00%    MPKI:0.00
PC:b9648     Total:10845      MisBP:0   MisRate:0.00%    MPKI:0.00
PC:17428     Total:335      MisBP:0   MisRate:0.00%    MPKI:0.00
PC:45f70     Total:756      MisBP:0   MisRate:0.00%    MPKI:0.00
PC:40ff8     Total:7693      MisBP:0   MisRate:0.00%    MPKI:0.00
PC:4aef0     Total:6400      MisBP:0   MisRate:0.00%    MPKI:0.00
PC:d46fa     Total:15995      MisBP:0   MisRate:0.00%    MPKI:0.00
PC:3bfb4     Total:7721      MisBP:0   MisRate:0.00%    MPKI:0.00
PC:b9626     Total:2603      MisBP:0   MisRate:0.00%    MPKI:0.00
PC:17406     Total:199      MisBP:0   MisRate:0.00%    MPKI:0.00
PC:40ff6     Total:7693      MisBP:0   MisRate:0.00%    MPKI:0.00
PC:d46f8     Total:15995      MisBP:0   MisRate:0.00%    MPKI:0.00
PC:bb5ae     Total:2020      MisBP:0   MisRate:0.00%    MPKI:0.00
PC:3fec98a8     Total:1      MisBP:0   MisRate:0.00%    MPKI:0.00
PC:be666     Total:17      MisBP:0   MisRate:0.00%    MPKI:0.00
PC:3bfb2     Total:7721      MisBP:0   MisRate:0.00%    MPKI:0.00
PC:3fec98a4     Total:1      MisBP:0   MisRate:0.00%    MPKI:0.00
PC:40ff4     Total:7693      MisBP:0   MisRate:0.00%    MPKI:0.00
PC:4aeec     Total:4899      MisBP:0   MisRate:0.00%    MPKI:0.00
PC:4aee8     Total:4901      MisBP:0   MisRate:0.00%    MPKI:0.00
PC:d46f0     Total:16004      MisBP:0   MisRate:0.00%    MPKI:0.00
PC:3bfa8     Total:7721      MisBP:0   MisRate:0.00%    MPKI:0.00
PC:3bfba     Total:37159      MisBP:0   MisRate:0.00%    MPKI:0.00
PC:3e160     Total:499876      MisBP:0   MisRate:0.00%    MPKI:0.00
PC:3fe5c2dc     Total:1      MisBP:0   MisRate:0.00%    MPKI:0.00
PC:1ffd4     Total:11      MisBP:0   MisRate:0.00%    MPKI:0.00
PC:22f54b4     Total:1      MisBP:0   MisRate:0.00%    MPKI:0.00
PC:3ffe7ae4     Total:1      MisBP:0   MisRate:0.00%    MPKI:0.00
PC:bb5ba     Total:225      MisBP:0   MisRate:0.00%    MPKI:0.00
PC:d4700     Total:13873      MisBP:0   MisRate:0.00%    MPKI:0.00
PC:be66e     Total:17      MisBP:0   MisRate:0.00%    MPKI:0.00
PC:dccd4     Total:362      MisBP:0   MisRate:0.00%    MPKI:0.00
PC:1ff0c     Total:117      MisBP:0   MisRate:0.00%    MPKI:0.00
PC:3fec98ac     Total:1      MisBP:0   MisRate:0.00%    MPKI:0.00
PC:40ffc     Total:7632      MisBP:0   MisRate:0.00%    MPKI:0.00
PC:bb5b4     Total:1584      MisBP:0   MisRate:0.00%    MPKI:0.00
PC:45f74     Total:5361      MisBP:0   MisRate:0.00%    MPKI:0.00
PC:134ca     Total:1296      MisBP:0   MisRate:0.00%    MPKI:0.00
PC:be66a     Total:17      MisBP:0   MisRate:0.00%    MPKI:0.00
PC:dccd0     Total:362      MisBP:0   MisRate:0.00%    MPKI:0.00
PC:3bfb6     Total:74321      MisBP:0   MisRate:0.00%    MPKI:0.00
PC:bee5e     Total:107824      MisBP:0   MisRate:0.00%    MPKI:0.00
PC:bb72e     Total:850      MisBP:0   MisRate:0.00%    MPKI:0.00
PC:bee68     Total:106843      MisBP:0   MisRate:0.00%    MPKI:0.00
PC:d4874     Total:18735      MisBP:0   MisRate:0.00%    MPKI:0.00
PC:1ff2c     Total:248      MisBP:0   MisRate:0.00%    MPKI:0.00
PC:22f540c     Total:1      MisBP:0   MisRate:0.00%    MPKI:0.00
PC:bb72a     Total:850      MisBP:0   MisRate:0.00%    MPKI:0.00
PC:bee64     Total:215630      MisBP:0   MisRate:0.00%    MPKI:0.00
PC:d4870     Total:18735      MisBP:0   MisRate:0.00%    MPKI:0.00
PC:bb726     Total:850      MisBP:0   MisRate:0.00%    MPKI:0.00
PC:d4878     Total:18734      MisBP:0   MisRate:0.00%    MPKI:0.00
PC:1fede     Total:199      MisBP:0   MisRate:0.00%    MPKI:0.00
PC:bee5a     Total:107825      MisBP:0   MisRate:0.00%    MPKI:0.00
PC:bee56     Total:107880      MisBP:0   MisRate:0.00%    MPKI:0.00
PC:d4862     Total:27482      MisBP:0   MisRate:0.00%    MPKI:0.00
PC:1ff1a     Total:135      MisBP:0   MisRate:0.00%    MPKI:0.00
PC:bb718     Total:3240      MisBP:0   MisRate:0.00%    MPKI:0.00
PC:41730     Total:158      MisBP:0   MisRate:0.00%    MPKI:0.00
PC:d572e     Total:1      MisBP:0   MisRate:0.00%    MPKI:0.00
PC:3ef72     Total:2279      MisBP:0   MisRate:0.00%    MPKI:0.00
PC:3ff579fc     Total:1      MisBP:0   MisRate:0.00%    MPKI:0.00
PC:bbdac     Total:1      MisBP:0   MisRate:0.00%    MPKI:0.00
PC:bb7b4     Total:5037      MisBP:0   MisRate:0.00%    MPKI:0.00
PC:a7370     Total:245      MisBP:0   MisRate:0.00%    MPKI:0.00
PC:bb7b2     Total:5037      MisBP:0   MisRate:0.00%    MPKI:0.00
PC:d3b8a     Total:10945      MisBP:0   MisRate:0.00%    MPKI:0.00
PC:b9f5e     Total:12      MisBP:0   MisRate:0.00%    MPKI:0.00
PC:3ff5bc94     Total:1      MisBP:0   MisRate:0.00%    MPKI:0.00
PC:bfee8     Total:12383      MisBP:0   MisRate:0.00%    MPKI:0.00
PC:3ff1ad30     Total:1      MisBP:0   MisRate:0.00%    MPKI:0.00
PC:3feb8420     Total:1      MisBP:0   MisRate:0.00%    MPKI:0.00
PC:3f420     Total:34609      MisBP:0   MisRate:0.00%    MPKI:0.00
PC:d4880     Total:18480      MisBP:0   MisRate:0.00%    MPKI:0.00
PC:1ff38     Total:242      MisBP:0   MisRate:0.00%    MPKI:0.00
PC:22f5418     Total:1      MisBP:0   MisRate:0.00%    MPKI:0.00
PC:bb736     Total:848      MisBP:0   MisRate:0.00%    MPKI:0.00
PC:bee6c     Total:106841      MisBP:0   MisRate:0.00%    MPKI:0.00
PC:b9ef0     Total:49      MisBP:0   MisRate:0.00%    MPKI:0.00
PC:3ffa2b14     Total:1      MisBP:0   MisRate:0.00%    MPKI:0.00
PC:bb70c     Total:4890      MisBP:0   MisRate:0.00%    MPKI:0.00
PC:3fe89170     Total:1      MisBP:0   MisRate:0.00%    MPKI:0.00
PC:d5728     Total:1      MisBP:0   MisRate:0.00%    MPKI:0.00
PC:3ef6c     Total:1      MisBP:0   MisRate:0.00%    MPKI:0.00
PC:b8904     Total:2117      MisBP:0   MisRate:0.00%    MPKI:0.00
PC:bb288     Total:4230      MisBP:0   MisRate:0.00%    MPKI:0.00
PC:1ff10     Total:135      MisBP:0   MisRate:0.00%    MPKI:0.00
PC:41728     Total:158      MisBP:0   MisRate:0.00%    MPKI:0.00
PC:d5726     Total:1      MisBP:0   MisRate:0.00%    MPKI:0.00
PC:d4856     Total:35122      MisBP:0   MisRate:0.00%    MPKI:0.00
PC:da76a     Total:1183      MisBP:0   MisRate:0.00%    MPKI:0.00
PC:da766     Total:1184      MisBP:0   MisRate:0.00%    MPKI:0.00
PC:3fe8916c     Total:1      MisBP:0   MisRate:0.00%    MPKI:0.00
PC:d5724     Total:1      MisBP:0   MisRate:0.00%    MPKI:0.00
PC:3ef68     Total:112      MisBP:0   MisRate:0.00%    MPKI:0.00
PC:b8900     Total:2117      MisBP:0   MisRate:0.00%    MPKI:0.00
PC:bb284     Total:4230      MisBP:0   MisRate:0.00%    MPKI:0.00
PC:418ec     Total:495      MisBP:0   MisRate:0.00%    MPKI:0.00
PC:d4854     Total:35122      MisBP:0   MisRate:0.00%    MPKI:0.00
PC:da76c     Total:1183      MisBP:0   MisRate:0.00%    MPKI:0.00
PC:bb28e     Total:4230      MisBP:0   MisRate:0.00%    MPKI:0.00
PC:418f6     Total:494      MisBP:0   MisRate:0.00%    MPKI:0.00
PC:d485e     Total:27482      MisBP:0   MisRate:0.00%    MPKI:0.00
PC:1ff16     Total:135      MisBP:0   MisRate:0.00%    MPKI:0.00
PC:d572c     Total:1      MisBP:0   MisRate:0.00%    MPKI:0.00
PC:3ef70     Total:1      MisBP:0   MisRate:0.00%    MPKI:0.00
PC:1ff14     Total:135      MisBP:0   MisRate:0.00%    MPKI:0.00
PC:bb712     Total:2649      MisBP:0   MisRate:0.00%    MPKI:0.00
PC:4172c     Total:158      MisBP:0   MisRate:0.00%    MPKI:0.00
PC:40fea     Total:7693      MisBP:0   MisRate:0.00%    MPKI:0.00
PC:b1ee4     Total:1220      MisBP:0   MisRate:0.00%    MPKI:0.00
PC:3ef6e     Total:1      MisBP:0   MisRate:0.00%    MPKI:0.00
PC:b8906     Total:15262      MisBP:0   MisRate:0.00%    MPKI:0.00
PC:3feb841c     Total:1      MisBP:0   MisRate:0.00%    MPKI:0.00
PC:bb28a     Total:4230      MisBP:0   MisRate:0.00%    MPKI:0.00
PC:418f2     Total:494      MisBP:0   MisRate:0.00%    MPKI:0.00
PC:d485a     Total:27483      MisBP:0   MisRate:0.00%    MPKI:0.00
PC:bb710     Total:2649      MisBP:0   MisRate:0.00%    MPKI:0.00
PC:bb384     Total:8119      MisBP:0   MisRate:0.00%    MPKI:0.00
PC:51684     Total:64607      MisBP:0   MisRate:0.00%    MPKI:0.00
PC:3d240     Total:3535      MisBP:0   MisRate:0.00%    MPKI:0.00
PC:c04de     Total:17931      MisBP:0   MisRate:0.00%    MPKI:0.00
PC:bb49c     Total:40911      MisBP:0   MisRate:0.00%    MPKI:0.00
PC:c04dc     Total:17931      MisBP:0   MisRate:0.00%    MPKI:0.00
PC:dbcf0     Total:1      MisBP:0   MisRate:0.00%    MPKI:0.00
PC:b3468     Total:212      MisBP:0   MisRate:0.00%    MPKI:0.00
PC:22366     Total:37      MisBP:0   MisRate:0.00%    MPKI:0.00
PC:bb498     Total:43023      MisBP:0   MisRate:0.00%    MPKI:0.00
PC:d3d38     Total:20784      MisBP:0   MisRate:0.00%    MPKI:0.00
PC:419ec     Total:5002      MisBP:0   MisRate:0.00%    MPKI:0.00
PC:bb382     Total:8120      MisBP:0   MisRate:0.00%    MPKI:0.00
PC:55e2e     Total:3      MisBP:0   MisRate:0.00%    MPKI:0.00
PC:bb380     Total:8121      MisBP:0   MisRate:0.00%    MPKI:0.00
PC:55e2c     Total:3      MisBP:0   MisRate:0.00%    MPKI:0.00
PC:419e8     Total:5006      MisBP:0   MisRate:0.00%    MPKI:0.00
PC:3e0c8     Total:11452      MisBP:0   MisRate:0.00%    MPKI:0.00
PC:1fa62     Total:17      MisBP:0   MisRate:0.00%    MPKI:0.00
PC:c0440     Total:2551      MisBP:0   MisRate:0.00%    MPKI:0.00
PC:2303f20     Total:1      MisBP:0   MisRate:0.00%    MPKI:0.00
PC:3ff57a10     Total:1      MisBP:0   MisRate:0.00%    MPKI:0.00
PC:bb554     Total:9267      MisBP:0   MisRate:0.00%    MPKI:0.00
PC:c0500     Total:14576      MisBP:0   MisRate:0.00%    MPKI:0.00
PC:42e8e     Total:145      MisBP:0   MisRate:0.00%    MPKI:0.00
PC:c04fc     Total:14628      MisBP:0   MisRate:0.00%    MPKI:0.00
PC:42e8a     Total:145      MisBP:0   MisRate:0.00%    MPKI:0.00
PC:c04f8     Total:14629      MisBP:0   MisRate:0.00%    MPKI:0.00
PC:bb4b6     Total:39658      MisBP:0   MisRate:0.00%    MPKI:0.00
PC:42e84     Total:161      MisBP:0   MisRate:0.00%    MPKI:0.00
PC:bb73a     Total:847      MisBP:0   MisRate:0.00%    MPKI:0.00
PC:c04f4     Total:29306      MisBP:0   MisRate:0.00%    MPKI:0.00
PC:c04f2     Total:14653      MisBP:0   MisRate:0.00%    MPKI:0.00
PC:bb4b0     Total:39658      MisBP:0   MisRate:0.00%    MPKI:0.00
PC:c04ee     Total:10992      MisBP:0   MisRate:0.00%    MPKI:0.00
PC:bb4ac     Total:39658      MisBP:0   MisRate:0.00%    MPKI:0.00
PC:c04ea     Total:10992      MisBP:0   MisRate:0.00%    MPKI:0.00
PC:c04e4     Total:22426      MisBP:0   MisRate:0.00%    MPKI:0.00
PC:1f3f0     Total:14      MisBP:0   MisRate:0.00%    MPKI:0.00
PC:4715e     Total:7173      MisBP:0   MisRate:0.00%    MPKI:0.00
PC:bb502     Total:4022      MisBP:0   MisRate:0.00%    MPKI:0.00
PC:41b6a     Total:1207      MisBP:0   MisRate:0.00%    MPKI:0.00
PC:47a1a     Total:1990      MisBP:0   MisRate:0.00%    MPKI:0.00
PC:1f484     Total:11      MisBP:0   MisRate:0.00%    MPKI:0.00
PC:d3dcc     Total:145      MisBP:0   MisRate:0.00%    MPKI:0.00
PC:51718     Total:135      MisBP:0   MisRate:0.00%    MPKI:0.00
PC:3ff1ad20     Total:1      MisBP:0   MisRate:0.00%    MPKI:0.00
PC:3ff579ec     Total:1      MisBP:0   MisRate:0.00%    MPKI:0.00
PC:bb530     Total:120      MisBP:0   MisRate:0.00%    MPKI:0.00
PC:2308564     Total:1      MisBP:0   MisRate:0.00%    MPKI:0.00
PC:ba6ce     Total:16349      MisBP:0   MisRate:0.00%    MPKI:0.00
PC:3fe03b80     Total:1      MisBP:0   MisRate:0.00%    MPKI:0.00
PC:206ca     Total:9      MisBP:0   MisRate:0.00%    MPKI:0.00
PC:3ff78a64     Total:1      MisBP:0   MisRate:0.00%    MPKI:0.00
PC:45aec     Total:3494      MisBP:0   MisRate:0.00%    MPKI:0.00
PC:223fc     Total:43      MisBP:0   MisRate:0.00%    MPKI:0.00
PC:bb52e     Total:120      MisBP:0   MisRate:0.00%    MPKI:0.00
PC:c045e     Total:4123      MisBP:0   MisRate:0.00%    MPKI:0.00
PC:2308568     Total:1      MisBP:0   MisRate:0.00%    MPKI:0.00
PC:1ff3c     Total:88      MisBP:0   MisRate:0.00%    MPKI:0.00
PC:22f541c     Total:1      MisBP:0   MisRate:0.00%    MPKI:0.00
PC:b9f40     Total:14      MisBP:0   MisRate:0.00%    MPKI:0.00
PC:3ffa2b64     Total:1      MisBP:0   MisRate:0.00%    MPKI:0.00
PC:b894c     Total:455      MisBP:0   MisRate:0.00%    MPKI:0.00
PC:4535e     Total:7636      MisBP:0   MisRate:0.00%    MPKI:0.00
PC:bb522     Total:121      MisBP:0   MisRate:0.00%    MPKI:0.00
PC:41b8a     Total:1      MisBP:0   MisRate:0.00%    MPKI:0.00
PC:516ee     Total:342      MisBP:0   MisRate:0.00%    MPKI:0.00
PC:3ff1ad44     Total:1      MisBP:0   MisRate:0.00%    MPKI:0.00
PC:223d4     Total:12      MisBP:0   MisRate:0.00%    MPKI:0.00
PC:ba3d2     Total:21978      MisBP:0   MisRate:0.00%    MPKI:0.00
PC:bb506     Total:4022      MisBP:0   MisRate:0.00%    MPKI:0.00
PC:41b6e     Total:1207      MisBP:0   MisRate:0.00%    MPKI:0.00
PC:d3d9e     Total:212      MisBP:0   MisRate:0.00%    MPKI:0.00
PC:13518     Total:943      MisBP:0   MisRate:0.00%    MPKI:0.00
PC:3ff75ad4     Total:1      MisBP:0   MisRate:0.00%    MPKI:0.00
PC:516ea     Total:114      MisBP:0   MisRate:0.00%    MPKI:0.00
PC:be64a     Total:17      MisBP:0   MisRate:0.00%    MPKI:0.00
PC:d46e2     Total:2837      MisBP:0   MisRate:0.00%    MPKI:0.00
PC:ba976     Total:3      MisBP:0   MisRate:0.00%    MPKI:0.00
PC:d9f58     Total:30      MisBP:0   MisRate:0.00%    MPKI:0.00
PC:bb8f2     Total:8      MisBP:0   MisRate:0.00%    MPKI:0.00
PC:d46e0     Total:2837      MisBP:0   MisRate:0.00%    MPKI:0.00
PC:d46de     Total:2837      MisBP:0   MisRate:0.00%    MPKI:0.00
PC:3bf98     Total:7971      MisBP:0   MisRate:0.00%    MPKI:0.00
PC:40fda     Total:6835      MisBP:0   MisRate:0.00%    MPKI:0.00
PC:ba972     Total:3      MisBP:0   MisRate:0.00%    MPKI:0.00
PC:bb59a     Total:6248      MisBP:0   MisRate:0.00%    MPKI:0.00
PC:dccb0     Total:371      MisBP:0   MisRate:0.00%    MPKI:0.00
PC:40fd8     Total:6836      MisBP:0   MisRate:0.00%    MPKI:0.00
PC:ba970     Total:3      MisBP:0   MisRate:0.00%    MPKI:0.00
PC:d46da     Total:2837      MisBP:0   MisRate:0.00%    MPKI:0.00
PC:d46d6     Total:2944      MisBP:0   MisRate:0.00%    MPKI:0.00
PC:d46d4     Total:2944      MisBP:0   MisRate:0.00%    MPKI:0.00
PC:bb58a     Total:8639      MisBP:0   MisRate:0.00%    MPKI:0.00
PC:d46d0     Total:2944      MisBP:0   MisRate:0.00%    MPKI:0.00
PC:bb586     Total:8639      MisBP:0   MisRate:0.00%    MPKI:0.00
PC:d9f5e     Total:30      MisBP:0   MisRate:0.00%    MPKI:0.00
PC:3fe03e34     Total:1      MisBP:0   MisRate:0.00%    MPKI:0.00
PC:d46ec     Total:16004      MisBP:0   MisRate:0.00%    MPKI:0.00
PC:be65a     Total:17      MisBP:0   MisRate:0.00%    MPKI:0.00
PC:3bfa6     Total:7721      MisBP:0   MisRate:0.00%    MPKI:0.00
PC:3fec9898     Total:1      MisBP:0   MisRate:0.00%    MPKI:0.00
PC:40fe8     Total:7693      MisBP:0   MisRate:0.00%    MPKI:0.00
PC:d9f62     Total:30      MisBP:0   MisRate:0.00%    MPKI:0.00
PC:bb8fc     Total:8      MisBP:0   MisRate:0.00%    MPKI:0.00
PC:d46ea     Total:15870      MisBP:0   MisRate:0.00%    MPKI:0.00
PC:d46cc     Total:2944      MisBP:0   MisRate:0.00%    MPKI:0.00
PC:a74b4     Total:1994      MisBP:0   MisRate:0.00%    MPKI:0.00
PC:bb8f8     Total:8      MisBP:0   MisRate:0.00%    MPKI:0.00
PC:d46e6     Total:2837      MisBP:0   MisRate:0.00%    MPKI:0.00
PC:3bfa0     Total:7971      MisBP:0   MisRate:0.00%    MPKI:0.00
PC:40fe2     Total:271      MisBP:0   MisRate:0.00%    MPKI:0.00
PC:ba97a     Total:3      MisBP:0   MisRate:0.00%    MPKI:0.00
PC:3fe03e2c     Total:1      MisBP:0   MisRate:0.00%    MPKI:0.00
PC:d46e4     Total:2837      MisBP:0   MisRate:0.00%    MPKI:0.00
PC:bb558     Total:9267      MisBP:0   MisRate:0.00%    MPKI:0.00
PC:bb560     Total:9267      MisBP:0   MisRate:0.00%    MPKI:0.00
PC:3e104     Total:2385      MisBP:0   MisRate:0.00%    MPKI:0.00
PC:1ff78     Total:2      MisBP:0   MisRate:0.00%    MPKI:0.00
[...]
PC:4db6e     Total:1295      MisBP:208   MisRate:16.06%    MPKI:0.00
PC:b35de     Total:1021      MisBP:208   MisRate:20.37%    MPKI:0.00
PC:b1fc0     Total:1529      MisBP:209   MisRate:13.67%    MPKI:0.00
PC:b32cc     Total:812      MisBP:209   MisRate:25.74%    MPKI:0.00
PC:4a538     Total:1420      MisBP:212   MisRate:14.93%    MPKI:0.00
PC:db3f8     Total:1743      MisBP:212   MisRate:12.16%    MPKI:0.00
PC:ba78e     Total:14816      MisBP:212   MisRate:1.43%    MPKI:0.00
PC:b22bc     Total:795      MisBP:214   MisRate:26.92%    MPKI:0.00
PC:b3222     Total:220      MisBP:215   MisRate:97.73%    MPKI:0.00
PC:b1f60     Total:1995      MisBP:215   MisRate:10.78%    MPKI:0.00
PC:47194     Total:922      MisBP:215   MisRate:23.32%    MPKI:0.00
PC:43288     Total:1259      MisBP:215   MisRate:17.08%    MPKI:0.00
PC:d474c     Total:12164      MisBP:216   MisRate:1.78%    MPKI:0.00
PC:471fc     Total:999      MisBP:216   MisRate:21.62%    MPKI:0.00
PC:b1a9a     Total:1033      MisBP:218   MisRate:21.10%    MPKI:0.00
PC:b31cc     Total:408      MisBP:219   MisRate:53.68%    MPKI:0.00
PC:da804     Total:1200      MisBP:219   MisRate:18.25%    MPKI:0.00
PC:b31e2     Total:224      MisBP:219   MisRate:97.77%    MPKI:0.00
PC:db71e     Total:302      MisBP:224   MisRate:74.17%    MPKI:0.00
PC:44e22     Total:2901      MisBP:224   MisRate:7.72%    MPKI:0.00
PC:ba37c     Total:2215      MisBP:227   MisRate:10.25%    MPKI:0.00
PC:3c00a     Total:115442      MisBP:228   MisRate:0.20%    MPKI:0.00
PC:419f0     Total:4579      MisBP:229   MisRate:5.00%    MPKI:0.00
PC:42230     Total:1611      MisBP:231   MisRate:14.34%    MPKI:0.00
PC:db7f2     Total:749      MisBP:234   MisRate:31.24%    MPKI:0.00
PC:bff1c     Total:11455      MisBP:235   MisRate:2.05%    MPKI:0.00
PC:bea10     Total:3302      MisBP:235   MisRate:7.12%    MPKI:0.00
PC:41758     Total:1053      MisBP:237   MisRate:22.51%    MPKI:0.00
PC:d479a     Total:20429      MisBP:239   MisRate:1.17%    MPKI:0.00
PC:b22c2     Total:775      MisBP:240   MisRate:30.97%    MPKI:0.00
PC:da79c     Total:1062      MisBP:241   MisRate:22.69%    MPKI:0.00
PC:40dbc     Total:3408      MisBP:244   MisRate:7.16%    MPKI:0.00
PC:b2416     Total:248      MisBP:245   MisRate:98.79%    MPKI:0.00
PC:dae86     Total:1772      MisBP:251   MisRate:14.16%    MPKI:0.00
PC:bb2d8     Total:43196      MisBP:254   MisRate:0.59%    MPKI:0.00
PC:d488e     Total:18374      MisBP:257   MisRate:1.40%    MPKI:0.00
PC:c04d4     Total:25163      MisBP:259   MisRate:1.03%    MPKI:0.00
PC:d682a     Total:12146      MisBP:262   MisRate:2.16%    MPKI:0.00
PC:c0462     Total:3989      MisBP:263   MisRate:6.59%    MPKI:0.00
PC:41dce     Total:2642      MisBP:263   MisRate:9.95%    MPKI:0.00
PC:3f45a     Total:10471      MisBP:268   MisRate:2.56%    MPKI:0.00
PC:d3654     Total:10597      MisBP:280   MisRate:2.64%    MPKI:0.00
PC:db586     Total:2818      MisBP:284   MisRate:10.08%    MPKI:0.00
PC:da836     Total:1461      MisBP:284   MisRate:19.44%    MPKI:0.00
PC:b2028     Total:2792      MisBP:286   MisRate:10.24%    MPKI:0.00
PC:b338e     Total:937      MisBP:291   MisRate:31.06%    MPKI:0.00
PC:47246     Total:6535      MisBP:298   MisRate:4.56%    MPKI:0.00
PC:b9642     Total:13431      MisBP:298   MisRate:2.22%    MPKI:0.00
PC:b339c     Total:299      MisBP:299   MisRate:100.00%    MPKI:0.00
PC:bb5a8     Total:6169      MisBP:301   MisRate:4.88%    MPKI:0.00
PC:45b9a     Total:1290      MisBP:301   MisRate:23.33%    MPKI:0.00
PC:db552     Total:2195      MisBP:302   MisRate:13.76%    MPKI:0.00
PC:4a58a     Total:6341      MisBP:303   MisRate:4.78%    MPKI:0.00
PC:3b678     Total:7585      MisBP:309   MisRate:4.07%    MPKI:0.00
PC:17498     Total:1737      MisBP:309   MisRate:17.79%    MPKI:0.00
PC:ba3de     Total:26643      MisBP:311   MisRate:1.17%    MPKI:0.00
PC:db368     Total:821      MisBP:312   MisRate:38.00%    MPKI:0.00
PC:4320e     Total:7308      MisBP:317   MisRate:4.34%    MPKI:0.00
PC:c04c6     Total:35674      MisBP:320   MisRate:0.90%    MPKI:0.00
PC:44e3a     Total:1200      MisBP:324   MisRate:27.00%    MPKI:0.00
PC:b2016     Total:2201      MisBP:324   MisRate:14.72%    MPKI:0.00
PC:af3c8     Total:498      MisBP:325   MisRate:65.26%    MPKI:0.00
PC:3f328     Total:16250      MisBP:326   MisRate:2.01%    MPKI:0.00
PC:db0c2     Total:950      MisBP:329   MisRate:34.63%    MPKI:0.00
PC:bb262     Total:4190      MisBP:331   MisRate:7.90%    MPKI:0.00
PC:af3c4     Total:1744      MisBP:332   MisRate:19.04%    MPKI:0.00
PC:bb3d4     Total:4767      MisBP:333   MisRate:6.99%    MPKI:0.00
PC:40d7c     Total:659      MisBP:335   MisRate:50.83%    MPKI:0.00
PC:bb7d4     Total:4464      MisBP:336   MisRate:7.53%    MPKI:0.00
PC:d5d0c     Total:17862      MisBP:337   MisRate:1.89%    MPKI:0.00
PC:4a5b2     Total:85792      MisBP:342   MisRate:0.40%    MPKI:0.00
PC:bb714     Total:2642      MisBP:344   MisRate:13.02%    MPKI:0.00
PC:db21a     Total:415      MisBP:347   MisRate:83.61%    MPKI:0.00
PC:45c12     Total:2829      MisBP:350   MisRate:12.37%    MPKI:0.00
PC:47286     Total:1842      MisBP:350   MisRate:19.00%    MPKI:0.00
PC:4d25e     Total:6678      MisBP:358   MisRate:5.36%    MPKI:0.00
PC:af4f2     Total:516      MisBP:359   MisRate:69.57%    MPKI:0.00
PC:40d84     Total:1705      MisBP:363   MisRate:21.29%    MPKI:0.00
PC:51808     Total:31779      MisBP:366   MisRate:1.15%    MPKI:0.00
PC:40fa2     Total:6722      MisBP:369   MisRate:5.49%    MPKI:0.00
PC:db97c     Total:1654      MisBP:369   MisRate:22.31%    MPKI:0.00
PC:3e1be     Total:3053485      MisBP:370   MisRate:0.01%    MPKI:0.00
PC:3ef20     Total:3983      MisBP:372   MisRate:9.34%    MPKI:0.00
PC:3aeb8     Total:20230      MisBP:377   MisRate:1.86%    MPKI:0.00
PC:40f4a     Total:4768      MisBP:379   MisRate:7.95%    MPKI:0.00
PC:b1af4     Total:383      MisBP:383   MisRate:100.00%    MPKI:0.00
PC:b1ae4     Total:1140      MisBP:383   MisRate:33.60%    MPKI:0.00
PC:b1f38     Total:2021      MisBP:388   MisRate:19.20%    MPKI:0.00
PC:47154     Total:3862679      MisBP:393   MisRate:0.01%    MPKI:0.00
PC:3f11c     Total:7022      MisBP:396   MisRate:5.64%    MPKI:0.00
PC:daf2e     Total:4583      MisBP:397   MisRate:8.66%    MPKI:0.00
PC:3f222     Total:7510      MisBP:398   MisRate:5.30%    MPKI:0.00
PC:417c2     Total:949      MisBP:399   MisRate:42.04%    MPKI:0.00
PC:af3fc     Total:1828      MisBP:402   MisRate:21.99%    MPKI:0.00
PC:ba870     Total:2398      MisBP:403   MisRate:16.81%    MPKI:0.00
PC:d9f12     Total:3461      MisBP:404   MisRate:11.67%    MPKI:0.00
PC:4db72     Total:8776      MisBP:405   MisRate:4.61%    MPKI:0.00
PC:ba7c4     Total:2010      MisBP:406   MisRate:20.20%    MPKI:0.00
PC:c04e2     Total:17930      MisBP:414   MisRate:2.31%    MPKI:0.00
PC:b23e2     Total:929      MisBP:416   MisRate:44.78%    MPKI:0.00
PC:45bfa     Total:3516      MisBP:423   MisRate:12.03%    MPKI:0.00
PC:da432     Total:4355      MisBP:426   MisRate:9.78%    MPKI:0.00
PC:40e36     Total:3033      MisBP:435   MisRate:14.34%    MPKI:0.00
PC:daea4     Total:1689      MisBP:440   MisRate:26.05%    MPKI:0.00
PC:b8930     Total:15261      MisBP:441   MisRate:2.89%    MPKI:0.00
PC:3c02e     Total:29616      MisBP:441   MisRate:1.49%    MPKI:0.00
PC:be728     Total:5394      MisBP:447   MisRate:8.29%    MPKI:0.00
PC:ba766     Total:14461      MisBP:448   MisRate:3.10%    MPKI:0.00
PC:c04e8     Total:22359      MisBP:449   MisRate:2.01%    MPKI:0.00
PC:41788     Total:5611      MisBP:461   MisRate:8.22%    MPKI:0.00
PC:43218     Total:4183      MisBP:469   MisRate:11.21%    MPKI:0.00
PC:3f1dc     Total:894      MisBP:478   MisRate:53.47%    MPKI:0.00
PC:bf1ae     Total:2631      MisBP:487   MisRate:18.51%    MPKI:0.00
PC:bb70e     Total:4890      MisBP:490   MisRate:10.02%    MPKI:0.00
PC:4713e     Total:3861597      MisBP:507   MisRate:0.01%    MPKI:0.00
PC:bb53c     Total:8994      MisBP:529   MisRate:5.88%    MPKI:0.00
PC:b1c98     Total:4852      MisBP:530   MisRate:10.92%    MPKI:0.00
PC:da81a     Total:2813      MisBP:530   MisRate:18.84%    MPKI:0.00
PC:d46fc     Total:15994      MisBP:535   MisRate:3.35%    MPKI:0.00
PC:b1de0     Total:1275      MisBP:535   MisRate:41.96%    MPKI:0.00
PC:b1f8a     Total:5502      MisBP:550   MisRate:10.00%    MPKI:0.00
PC:da2b8     Total:4341      MisBP:554   MisRate:12.76%    MPKI:0.00
PC:bb2be     Total:12026      MisBP:566   MisRate:4.71%    MPKI:0.00
PC:45c04     Total:4319      MisBP:575   MisRate:13.31%    MPKI:0.00
PC:bea32     Total:3492      MisBP:586   MisRate:16.78%    MPKI:0.00
PC:4e2b4     Total:3027      MisBP:593   MisRate:19.59%    MPKI:0.00
PC:4a40e     Total:1708      MisBP:594   MisRate:34.78%    MPKI:0.00
PC:45ab8     Total:4249      MisBP:594   MisRate:13.98%    MPKI:0.00
PC:41754     Total:9408      MisBP:600   MisRate:6.38%    MPKI:0.00
PC:a7348     Total:1803      MisBP:600   MisRate:33.28%    MPKI:0.00
PC:bb724     Total:5641      MisBP:608   MisRate:10.78%    MPKI:0.00
PC:419cc     Total:4470      MisBP:612   MisRate:13.69%    MPKI:0.00
PC:4329a     Total:5225      MisBP:614   MisRate:11.75%    MPKI:0.00
PC:3c0cc     Total:3297      MisBP:614   MisRate:18.62%    MPKI:0.00
PC:d1b14     Total:1613      MisBP:614   MisRate:38.07%    MPKI:0.00
PC:bee54     Total:8267      MisBP:617   MisRate:7.46%    MPKI:0.00
PC:40d70     Total:9119      MisBP:619   MisRate:6.79%    MPKI:0.00
PC:d3b9c     Total:17569      MisBP:620   MisRate:3.53%    MPKI:0.00
PC:3f194     Total:1537      MisBP:648   MisRate:42.16%    MPKI:0.00
PC:41b0a     Total:927      MisBP:649   MisRate:70.01%    MPKI:0.00
PC:ba312     Total:23241      MisBP:662   MisRate:2.85%    MPKI:0.00
PC:d4768     Total:13981      MisBP:662   MisRate:4.73%    MPKI:0.00
PC:bb40a     Total:4219      MisBP:685   MisRate:16.24%    MPKI:0.00
PC:d46aa     Total:6012      MisBP:697   MisRate:11.59%    MPKI:0.00
PC:b1cc0     Total:5183      MisBP:701   MisRate:13.52%    MPKI:0.00
PC:3f204     Total:1150      MisBP:704   MisRate:61.22%    MPKI:0.00
PC:43750     Total:1302      MisBP:720   MisRate:55.30%    MPKI:0.00
PC:43222     Total:4068      MisBP:724   MisRate:17.80%    MPKI:0.00
PC:43278     Total:902      MisBP:737   MisRate:81.71%    MPKI:0.00
PC:d4702     Total:13873      MisBP:738   MisRate:5.32%    MPKI:0.00
PC:41ac4     Total:2448      MisBP:739   MisRate:30.19%    MPKI:0.00
PC:ba6e6     Total:16232      MisBP:745   MisRate:4.59%    MPKI:0.00
PC:45c18     Total:3806      MisBP:748   MisRate:19.65%    MPKI:0.00
PC:54042     Total:4702      MisBP:760   MisRate:16.16%    MPKI:0.00
PC:daf28     Total:5952      MisBP:769   MisRate:12.92%    MPKI:0.00
PC:517e4     Total:7230      MisBP:771   MisRate:10.66%    MPKI:0.00
PC:3f228     Total:8461      MisBP:771   MisRate:9.11%    MPKI:0.00
PC:40d5c     Total:11935      MisBP:774   MisRate:6.49%    MPKI:0.00
PC:45a8a     Total:10044      MisBP:778   MisRate:7.75%    MPKI:0.00
PC:b2086     Total:1053      MisBP:783   MisRate:74.36%    MPKI:0.00
PC:da842     Total:2453      MisBP:788   MisRate:32.12%    MPKI:0.00
PC:3e080     Total:4073129      MisBP:792   MisRate:0.02%    MPKI:0.00
PC:4d254     Total:8161      MisBP:803   MisRate:9.84%    MPKI:0.00
PC:b207e     Total:1077      MisBP:811   MisRate:75.30%    MPKI:0.00
PC:b1c9a     Total:2025      MisBP:816   MisRate:40.30%    MPKI:0.00
PC:db57c     Total:2511      MisBP:819   MisRate:32.62%    MPKI:0.00
PC:432a8     Total:4895      MisBP:823   MisRate:16.81%    MPKI:0.00
PC:bb2aa     Total:4230      MisBP:826   MisRate:19.53%    MPKI:0.00
PC:3f0b6     Total:9867      MisBP:842   MisRate:8.53%    MPKI:0.00
PC:da2c4     Total:4946      MisBP:846   MisRate:17.10%    MPKI:0.00
PC:da1b2     Total:4993      MisBP:858   MisRate:17.18%    MPKI:0.00
PC:b8742     Total:46598      MisBP:871   MisRate:1.87%    MPKI:0.00
PC:45c52     Total:2480      MisBP:877   MisRate:35.36%    MPKI:0.00
PC:417a0     Total:13084      MisBP:885   MisRate:6.76%    MPKI:0.00
PC:3c054     Total:4817      MisBP:900   MisRate:18.68%    MPKI:0.00
PC:da07c     Total:2381      MisBP:944   MisRate:39.65%    MPKI:0.00
PC:3e08e     Total:4073107      MisBP:973   MisRate:0.02%    MPKI:0.00
PC:4531e     Total:9402      MisBP:996   MisRate:10.59%    MPKI:0.00
PC:45f60     Total:5375      MisBP:998   MisRate:18.57%    MPKI:0.00
PC:b1f0a     Total:1111      MisBP:1008   MisRate:90.73%    MPKI:0.00
PC:bd26a     Total:18592      MisBP:1008   MisRate:5.42%    MPKI:0.00
PC:bd276     Total:18562      MisBP:1009   MisRate:5.44%    MPKI:0.00
PC:d9f08     Total:2458      MisBP:1017   MisRate:41.38%    MPKI:0.00
PC:45318     Total:16036      MisBP:1022   MisRate:6.37%    MPKI:0.00
PC:45dce     Total:7017      MisBP:1036   MisRate:14.76%    MPKI:0.00
PC:bf0be     Total:7180      MisBP:1042   MisRate:14.51%    MPKI:0.00
PC:4d29e     Total:24789      MisBP:1062   MisRate:4.28%    MPKI:0.00
PC:43246     Total:4988      MisBP:1072   MisRate:21.49%    MPKI:0.00
PC:bb3c2     Total:4960      MisBP:1086   MisRate:21.90%    MPKI:0.00
PC:bb3b2     Total:9820      MisBP:1131   MisRate:11.52%    MPKI:0.00
PC:be612     Total:18834      MisBP:1147   MisRate:6.09%    MPKI:0.00
PC:4db10     Total:2495      MisBP:1167   MisRate:46.77%    MPKI:0.00
PC:51774     Total:30368      MisBP:1172   MisRate:3.86%    MPKI:0.00
PC:bf044     Total:44381      MisBP:1204   MisRate:2.71%    MPKI:0.00
PC:51800     Total:8398      MisBP:1213   MisRate:14.44%    MPKI:0.00
PC:4715c     Total:3862416      MisBP:1259   MisRate:0.03%    MPKI:0.00
PC:457b8     Total:15716      MisBP:1279   MisRate:8.14%    MPKI:0.00
PC:bb4a2     Total:40911      MisBP:1301   MisRate:3.18%    MPKI:0.00
PC:d5ac6     Total:10474      MisBP:1332   MisRate:12.72%    MPKI:0.00
PC:da19a     Total:8816      MisBP:1346   MisRate:15.27%    MPKI:0.00
PC:47230     Total:5828      MisBP:1362   MisRate:23.37%    MPKI:0.00
PC:e34de     Total:2134      MisBP:1421   MisRate:66.59%    MPKI:0.00
PC:bb1de     Total:56713      MisBP:1432   MisRate:2.52%    MPKI:0.00
PC:d47ec     Total:23022      MisBP:1446   MisRate:6.28%    MPKI:0.00
PC:d46b8     Total:3092      MisBP:1456   MisRate:47.09%    MPKI:0.00
PC:da1c6     Total:4370      MisBP:1462   MisRate:33.46%    MPKI:0.00
PC:3ae70     Total:71898      MisBP:1503   MisRate:2.09%    MPKI:0.00
PC:bb5fc     Total:8685      MisBP:1514   MisRate:17.43%    MPKI:0.00
PC:3e0f0     Total:2105355      MisBP:1519   MisRate:0.07%    MPKI:0.00
PC:bb584     Total:12007      MisBP:1522   MisRate:12.68%    MPKI:0.00
PC:45ab2     Total:24121      MisBP:1614   MisRate:6.69%    MPKI:0.01
PC:be9f4     Total:54682      MisBP:1630   MisRate:2.98%    MPKI:0.01
PC:4376c     Total:10002      MisBP:1635   MisRate:16.35%    MPKI:0.01
PC:bb3aa     Total:47348      MisBP:1668   MisRate:3.52%    MPKI:0.01
PC:3e0e6     Total:2531831      MisBP:1711   MisRate:0.07%    MPKI:0.01
PC:bb3ba     Total:8844      MisBP:1747   MisRate:19.75%    MPKI:0.01
PC:bb1f2     Total:53814      MisBP:1766   MisRate:3.28%    MPKI:0.01
PC:3f33a     Total:21782      MisBP:1806   MisRate:8.29%    MPKI:0.01
PC:bb49a     Total:43022      MisBP:1841   MisRate:4.28%    MPKI:0.01
PC:3c43e     Total:24557      MisBP:1880   MisRate:7.66%    MPKI:0.01
PC:bf198     Total:52281      MisBP:1894   MisRate:3.62%    MPKI:0.01
PC:bee34     Total:17136      MisBP:1995   MisRate:11.64%    MPKI:0.01
PC:45aa4     Total:16108      MisBP:1995   MisRate:12.39%    MPKI:0.01
PC:3f0be     Total:13673      MisBP:1996   MisRate:14.60%    MPKI:0.01
PC:b88fe     Total:13196      MisBP:2073   MisRate:15.71%    MPKI:0.01
PC:b878a     Total:2802      MisBP:2162   MisRate:77.16%    MPKI:0.01
PC:bf058     Total:39302      MisBP:2199   MisRate:5.60%    MPKI:0.01
PC:bb27a     Total:62241      MisBP:2254   MisRate:3.62%    MPKI:0.01
PC:bb4f0     Total:36323      MisBP:2346   MisRate:6.46%    MPKI:0.01
PC:be788     Total:26601      MisBP:2351   MisRate:8.84%    MPKI:0.01
PC:3bfc0     Total:36504      MisBP:2373   MisRate:6.50%    MPKI:0.01
PC:45ac6     Total:9105      MisBP:2417   MisRate:26.55%    MPKI:0.01
PC:b877c     Total:57436      MisBP:2419   MisRate:4.21%    MPKI:0.01
PC:3c018     Total:104000      MisBP:2514   MisRate:2.42%    MPKI:0.01
PC:bf1a0     Total:55632      MisBP:2624   MisRate:4.72%    MPKI:0.01
PC:d4796     Total:22992      MisBP:2635   MisRate:11.46%    MPKI:0.01
PC:c1bd4     Total:6020      MisBP:2728   MisRate:45.32%    MPKI:0.01
PC:be762     Total:40466      MisBP:2760   MisRate:6.82%    MPKI:0.01
PC:bea58     Total:16771      MisBP:2805   MisRate:16.73%    MPKI:0.01
PC:45a96     Total:23434      MisBP:2867   MisRate:12.23%    MPKI:0.01
PC:3e1aa     Total:707251      MisBP:2884   MisRate:0.41%    MPKI:0.01
PC:bb38c     Total:54232      MisBP:2966   MisRate:5.47%    MPKI:0.01
PC:5165c     Total:39640      MisBP:3002   MisRate:7.57%    MPKI:0.01
PC:bf04c     Total:44028      MisBP:3158   MisRate:7.17%    MPKI:0.01
PC:bb592     Total:75166      MisBP:3217   MisRate:4.28%    MPKI:0.01
PC:d36be     Total:20374      MisBP:3269   MisRate:16.04%    MPKI:0.01
PC:4a558     Total:37395      MisBP:3364   MisRate:9.00%    MPKI:0.01
PC:51664     Total:41399      MisBP:3401   MisRate:8.22%    MPKI:0.01
PC:3bffa     Total:176600      MisBP:3412   MisRate:1.93%    MPKI:0.01
PC:51658     Total:74158      MisBP:3464   MisRate:4.67%    MPKI:0.01
PC:3e1a0     Total:623837      MisBP:3499   MisRate:0.56%    MPKI:0.01
PC:3c040     Total:107009      MisBP:3528   MisRate:3.30%    MPKI:0.01
PC:3e1d8     Total:515444      MisBP:3542   MisRate:0.69%    MPKI:0.01
PC:c045c     Total:32684      MisBP:3709   MisRate:11.35%    MPKI:0.01
PC:bedd8     Total:96581      MisBP:3756   MisRate:3.89%    MPKI:0.01
PC:3e1d2     Total:539524      MisBP:3832   MisRate:0.71%    MPKI:0.01
PC:3c0be     Total:41142      MisBP:3853   MisRate:9.37%    MPKI:0.01
PC:51676     Total:80902      MisBP:4242   MisRate:5.24%    MPKI:0.01
PC:3f350     Total:34861      MisBP:4526   MisRate:12.98%    MPKI:0.01
PC:be754     Total:43982      MisBP:4674   MisRate:10.63%    MPKI:0.02
PC:bee1a     Total:52812      MisBP:4861   MisRate:9.20%    MPKI:0.02
PC:51682     Total:72379      MisBP:4914   MisRate:6.79%    MPKI:0.02
PC:be6fa     Total:103672      MisBP:5468   MisRate:5.27%    MPKI:0.02
PC:3c000     Total:147374      MisBP:6428   MisRate:4.36%    MPKI:0.02
PC:3bfec     Total:292117      MisBP:6512   MisRate:2.23%    MPKI:0.02
PC:d52d0     Total:10899      MisBP:6819   MisRate:62.57%    MPKI:0.02
PC:bb204     Total:38764      MisBP:7241   MisRate:18.68%    MPKI:0.02
PC:bb5f6     Total:142696      MisBP:7370   MisRate:5.16%    MPKI:0.02
PC:bf068     Total:52817      MisBP:7564   MisRate:14.32%    MPKI:0.02
PC:be622     Total:60482      MisBP:8913   MisRate:14.74%    MPKI:0.03
PC:bee00     Total:100222      MisBP:9634   MisRate:9.61%    MPKI:0.03
PC:d4770     Total:12632      MisBP:10603   MisRate:83.94%    MPKI:0.03
PC:be6f0     Total:133410      MisBP:12847   MisRate:9.63%    MPKI:0.04
PC:bb598     Total:81186      MisBP:14552   MisRate:17.92%    MPKI:0.05
PC:bf07e     Total:17785394      MisBP:18374   MisRate:0.10%    MPKI:0.06
PC:be6da     Total:270301      MisBP:20375   MisRate:7.54%    MPKI:0.07
PC:be812     Total:151417      MisBP:22611   MisRate:14.93%    MPKI:0.07
PC:b8772     Total:135126      MisBP:23708   MisRate:17.55%    MPKI:0.08
PC:3e12e     Total:2504822      MisBP:33940   MisRate:1.35%    MPKI:0.11
PC:3e1c4     Total:3028414      MisBP:36056   MisRate:1.19%    MPKI:0.12
PC:be7fa     Total:239809      MisBP:37198   MisRate:15.51%    MPKI:0.12
PC:3e168     Total:499872      MisBP:38851   MisRate:7.77%    MPKI:0.13
PC:be9f0     Total:457275      MisBP:57529   MisRate:12.58%    MPKI:0.19
PC:3e1e0     Total:3424941      MisBP:90329   MisRate:2.64%    MPKI:0.29
PC:3e0e8     Total:2521264      MisBP:119308   MisRate:4.73%    MPKI:0.38
Totfetch:373425001  TotInsts:310000004  TotMis : inf%   MPKI : 2.89
=============finish sim!!!!!!=============
Done running SimPoint!
