Global frequency set at 1000000000000 ticks per second
 Register [printBranch()] ExitCallback !!!!!!! 
gem5 Simulator System.  https://www.gem5.org
gem5 is copyrighted software; use the --copyright option for details.

gem5 version 22.0.0.2
gem5 compiled Sep  7 2022 00:42:18
gem5 started Sep  7 2022 01:45:23
gem5 executing on a100, pid 2722434
command line: /data/zxf/gem5/gem5-prof/build/ARM/gem5.fast --outdir=/data/zxf/checkpoint/spec2006/401.bzip2/prof/bzip2_ckp_2 /data/zxf/gem5/gem5-prof/configs/example/se.py --cpu-type O3CPU --cpu-clock 1GHz --num-cpu 1 --l1d-hwp-type=BOPPrefetcher --caches --l2cache --l1i_size 32kB --l1d_size 32kB --l2_size 1MB --l1i_assoc 8 --l1d_assoc 8 --l2_assoc 16 --cacheline_size 64 --mem-type DDR3_2133_8x8 --mem-size 16GB --restore-simpoint-checkpoint -r 2 --checkpoint-dir /data/zxf/checkpoint/spec2006/401.bzip2/ckpt -c bzip2_base.gcc41-64bit -o 'input.source 280'

info: Standard input is not a terminal, disabling listeners.
Resuming from /data/zxf/checkpoint/spec2006/401.bzip2/ckpt/cpt.simpoint_01_inst_32690000000_weight_0.076495_interval_300000000_warmup_10000000
Resuming from SimPoint #1, start_inst:32690000000, weight:0.076495, interval:300000000, warmup:10000000
Switch at curTick count:10000
Switched CPUS @ tick 20175175946000
[(<m5.objects.ArmCPU.ArmAtomicSimpleCPU object at 0x7f101e18cbb0>, <m5.objects.ArmCPU.ArmO3CPU object at 0x7f101e1a4e20>)]
switching cpus



+++++++++++++++++++++++++zxf print simpoint+++++++++++++++++++++++++++
Warmed up! Dumping and resetting stats!


=============start sim!!!!!!=============
PC:1698c     Total:1      MisBP:0   MisRate:0.00%    MPKI:0.00
PC:16998     Total:9      MisBP:0   MisRate:0.00%    MPKI:0.00
PC:141d4     Total:5      MisBP:0   MisRate:0.00%    MPKI:0.00
PC:16992     Total:1      MisBP:0   MisRate:0.00%    MPKI:0.00
PC:29518     Total:3334      MisBP:0   MisRate:0.00%    MPKI:0.00
PC:15410     Total:26      MisBP:0   MisRate:0.00%    MPKI:0.00
PC:12f6a     Total:8      MisBP:0   MisRate:0.00%    MPKI:0.00
PC:15728     Total:36866      MisBP:0   MisRate:0.00%    MPKI:0.00
PC:12f68     Total:8      MisBP:0   MisRate:0.00%    MPKI:0.00
PC:15726     Total:36907      MisBP:0   MisRate:0.00%    MPKI:0.00
PC:141ce     Total:5      MisBP:0   MisRate:0.00%    MPKI:0.00
PC:19210     Total:7      MisBP:0   MisRate:0.00%    MPKI:0.00
PC:29548     Total:3332      MisBP:0   MisRate:0.00%    MPKI:0.00
PC:12f64     Total:8      MisBP:0   MisRate:0.00%    MPKI:0.00
PC:15722     Total:36910      MisBP:0   MisRate:0.00%    MPKI:0.00
PC:141ca     Total:5      MisBP:0   MisRate:0.00%    MPKI:0.00
PC:1920c     Total:7      MisBP:0   MisRate:0.00%    MPKI:0.00
PC:16988     Total:1      MisBP:0   MisRate:0.00%    MPKI:0.00
PC:1571e     Total:36944      MisBP:0   MisRate:0.00%    MPKI:0.00
PC:1571a     Total:36878      MisBP:0   MisRate:0.00%    MPKI:0.00
PC:15716     Total:36878      MisBP:0   MisRate:0.00%    MPKI:0.00
PC:141be     Total:7      MisBP:0   MisRate:0.00%    MPKI:0.00
PC:19200     Total:7      MisBP:0   MisRate:0.00%    MPKI:0.00
PC:15148     Total:97      MisBP:0   MisRate:0.00%    MPKI:0.00
PC:1593c     Total:35862      MisBP:0   MisRate:0.00%    MPKI:0.00
PC:1547a     Total:35728      MisBP:0   MisRate:0.00%    MPKI:0.00
PC:15d1a     Total:36372      MisBP:0   MisRate:0.00%    MPKI:0.00
PC:29260     Total:3      MisBP:0   MisRate:0.00%    MPKI:0.00
PC:15158     Total:89      MisBP:0   MisRate:0.00%    MPKI:0.00
PC:1546a     Total:425911      MisBP:0   MisRate:0.00%    MPKI:0.00
PC:15d0e     Total:36396      MisBP:0   MisRate:0.00%    MPKI:0.00
PC:29254     Total:30      MisBP:0   MisRate:0.00%    MPKI:0.00
PC:15464     Total:425950      MisBP:0   MisRate:0.00%    MPKI:0.00
PC:2956c     Total:3331      MisBP:0   MisRate:0.00%    MPKI:0.00
PC:29250     Total:32      MisBP:0   MisRate:0.00%    MPKI:0.00
PC:1697c     Total:23      MisBP:0   MisRate:0.00%    MPKI:0.00
PC:15460     Total:425954      MisBP:0   MisRate:0.00%    MPKI:0.00
PC:29568     Total:3331      MisBP:0   MisRate:0.00%    MPKI:0.00
PC:15d04     Total:36346      MisBP:0   MisRate:0.00%    MPKI:0.00
PC:2924a     Total:32      MisBP:0   MisRate:0.00%    MPKI:0.00
PC:1545a     Total:779498      MisBP:0   MisRate:0.00%    MPKI:0.00
PC:15cf4     Total:36333      MisBP:0   MisRate:0.00%    MPKI:0.00
PC:1544a     Total:36293      MisBP:0   MisRate:0.00%    MPKI:0.00
PC:15cee     Total:36352      MisBP:0   MisRate:0.00%    MPKI:0.00
PC:2954c     Total:3332      MisBP:0   MisRate:0.00%    MPKI:0.00
PC:15cea     Total:36356      MisBP:0   MisRate:0.00%    MPKI:0.00
PC:297f4     Total:5490      MisBP:0   MisRate:0.00%    MPKI:0.00
PC:12f3e     Total:5      MisBP:0   MisRate:0.00%    MPKI:0.00
PC:156fc     Total:36875      MisBP:0   MisRate:0.00%    MPKI:0.00
PC:141a4     Total:344      MisBP:0   MisRate:0.00%    MPKI:0.00
PC:191e6     Total:5      MisBP:0   MisRate:0.00%    MPKI:0.00
PC:16962     Total:1166      MisBP:0   MisRate:0.00%    MPKI:0.00
PC:294e0     Total:266      MisBP:0   MisRate:0.00%    MPKI:0.00
PC:153d8     Total:26      MisBP:0   MisRate:0.00%    MPKI:0.00
PC:156f0     Total:36837      MisBP:0   MisRate:0.00%    MPKI:0.00
PC:297f8     Total:5471      MisBP:0   MisRate:0.00%    MPKI:0.00
PC:294dc     Total:266      MisBP:0   MisRate:0.00%    MPKI:0.00
PC:156ec     Total:36837      MisBP:0   MisRate:0.00%    MPKI:0.00
PC:153e4     Total:26      MisBP:0   MisRate:0.00%    MPKI:0.00
PC:14194     Total:1      MisBP:0   MisRate:0.00%    MPKI:0.00
PC:16952     Total:1167      MisBP:0   MisRate:0.00%    MPKI:0.00
PC:294d8     Total:266      MisBP:0   MisRate:0.00%    MPKI:0.00
PC:12f2a     Total:2      MisBP:0   MisRate:0.00%    MPKI:0.00
PC:156e8     Total:36876      MisBP:0   MisRate:0.00%    MPKI:0.00
PC:297f0     Total:5541      MisBP:0   MisRate:0.00%    MPKI:0.00
PC:1910c     Total:6      MisBP:0   MisRate:0.00%    MPKI:0.00
PC:1694e     Total:1167      MisBP:0   MisRate:0.00%    MPKI:0.00
PC:294d4     Total:266      MisBP:0   MisRate:0.00%    MPKI:0.00
PC:12f26     Total:2      MisBP:0   MisRate:0.00%    MPKI:0.00
PC:29814     Total:48      MisBP:0   MisRate:0.00%    MPKI:0.00
PC:15712     Total:36905      MisBP:0   MisRate:0.00%    MPKI:0.00
PC:29500     Total:3334      MisBP:0   MisRate:0.00%    MPKI:0.00
PC:153f8     Total:36436      MisBP:0   MisRate:0.00%    MPKI:0.00
PC:15710     Total:36905      MisBP:0   MisRate:0.00%    MPKI:0.00
PC:141ba     Total:8      MisBP:0   MisRate:0.00%    MPKI:0.00
PC:191fc     Total:7      MisBP:0   MisRate:0.00%    MPKI:0.00
PC:16978     Total:1157      MisBP:0   MisRate:0.00%    MPKI:0.00
PC:1570e     Total:36905      MisBP:0   MisRate:0.00%    MPKI:0.00
PC:294fc     Total:266      MisBP:0   MisRate:0.00%    MPKI:0.00
PC:153f4     Total:36440      MisBP:0   MisRate:0.00%    MPKI:0.00
PC:1570c     Total:36906      MisBP:0   MisRate:0.00%    MPKI:0.00
PC:1317e     Total:1906      MisBP:0   MisRate:0.00%    MPKI:0.00
PC:16972     Total:1157      MisBP:0   MisRate:0.00%    MPKI:0.00
PC:294f8     Total:266      MisBP:0   MisRate:0.00%    MPKI:0.00
PC:153f0     Total:36441      MisBP:0   MisRate:0.00%    MPKI:0.00
PC:15708     Total:36757      MisBP:0   MisRate:0.00%    MPKI:0.00
PC:29810     Total:24      MisBP:0   MisRate:0.00%    MPKI:0.00
PC:294f4     Total:266      MisBP:0   MisRate:0.00%    MPKI:0.00
PC:153ec     Total:36443      MisBP:0   MisRate:0.00%    MPKI:0.00
PC:294f0     Total:266      MisBP:0   MisRate:0.00%    MPKI:0.00
PC:153e8     Total:26      MisBP:0   MisRate:0.00%    MPKI:0.00
PC:294ec     Total:266      MisBP:0   MisRate:0.00%    MPKI:0.00
PC:15a62     Total:36347      MisBP:0   MisRate:0.00%    MPKI:0.00
PC:15a96     Total:36273      MisBP:0   MisRate:0.00%    MPKI:0.00
PC:191d4     Total:6      MisBP:0   MisRate:0.00%    MPKI:0.00
PC:14192     Total:2      MisBP:0   MisRate:0.00%    MPKI:0.00
PC:15a8e     Total:36367      MisBP:0   MisRate:0.00%    MPKI:0.00
PC:191cc     Total:6      MisBP:0   MisRate:0.00%    MPKI:0.00
PC:1418a     Total:2      MisBP:0   MisRate:0.00%    MPKI:0.00
PC:15a70     Total:36420      MisBP:0   MisRate:0.00%    MPKI:0.00
PC:191ae     Total:6      MisBP:0   MisRate:0.00%    MPKI:0.00
PC:15a6c     Total:36420      MisBP:0   MisRate:0.00%    MPKI:0.00
PC:15a66     Total:36400      MisBP:0   MisRate:0.00%    MPKI:0.00
PC:191a4     Total:6      MisBP:0   MisRate:0.00%    MPKI:0.00
PC:15aa6     Total:36237      MisBP:0   MisRate:0.00%    MPKI:0.00
PC:15a5e     Total:36297      MisBP:0   MisRate:0.00%    MPKI:0.00
PC:1919c     Total:6      MisBP:0   MisRate:0.00%    MPKI:0.00
PC:15a5a     Total:36299      MisBP:0   MisRate:0.00%    MPKI:0.00
PC:19198     Total:6      MisBP:0   MisRate:0.00%    MPKI:0.00
PC:14156     Total:317      MisBP:0   MisRate:0.00%    MPKI:0.00
PC:15a56     Total:36303      MisBP:0   MisRate:0.00%    MPKI:0.00
PC:29808     Total:72      MisBP:0   MisRate:0.00%    MPKI:0.00
PC:15700     Total:36757      MisBP:0   MisRate:0.00%    MPKI:0.00
PC:15a18     Total:36323      MisBP:0   MisRate:0.00%    MPKI:0.00
PC:15a0e     Total:36317      MisBP:0   MisRate:0.00%    MPKI:0.00
PC:15ad6     Total:36158      MisBP:0   MisRate:0.00%    MPKI:0.00
PC:1334e     Total:46      MisBP:0   MisRate:0.00%    MPKI:0.00
PC:15b0c     Total:36522      MisBP:0   MisRate:0.00%    MPKI:0.00
PC:13340     Total:296      MisBP:0   MisRate:0.00%    MPKI:0.00
PC:15afe     Total:36479      MisBP:0   MisRate:0.00%    MPKI:0.00
PC:13336     Total:284      MisBP:0   MisRate:0.00%    MPKI:0.00
PC:15af4     Total:36416      MisBP:0   MisRate:0.00%    MPKI:0.00
PC:13330     Total:289      MisBP:0   MisRate:0.00%    MPKI:0.00
PC:15aee     Total:36358      MisBP:0   MisRate:0.00%    MPKI:0.00
PC:15ae4     Total:36274      MisBP:0   MisRate:0.00%    MPKI:0.00
PC:15ade     Total:36217      MisBP:0   MisRate:0.00%    MPKI:0.00
PC:15ada     Total:36158      MisBP:0   MisRate:0.00%    MPKI:0.00
PC:1914c     Total:6      MisBP:0   MisRate:0.00%    MPKI:0.00
PC:15ac8     Total:36202      MisBP:0   MisRate:0.00%    MPKI:0.00
PC:15ac4     Total:36143      MisBP:0   MisRate:0.00%    MPKI:0.00
PC:15ac0     Total:36150      MisBP:0   MisRate:0.00%    MPKI:0.00
PC:15abc     Total:36225      MisBP:0   MisRate:0.00%    MPKI:0.00
PC:15ab8     Total:36225      MisBP:0   MisRate:0.00%    MPKI:0.00
PC:15ab4     Total:36273      MisBP:0   MisRate:0.00%    MPKI:0.00
PC:15aae     Total:36273      MisBP:0   MisRate:0.00%    MPKI:0.00
PC:15aaa     Total:36277      MisBP:0   MisRate:0.00%    MPKI:0.00
PC:191e8     Total:5      MisBP:0   MisRate:0.00%    MPKI:0.00
PC:141a6     Total:344      MisBP:0   MisRate:0.00%    MPKI:0.00
PC:15638     Total:36326      MisBP:0   MisRate:0.00%    MPKI:0.00
PC:29754     Total:237      MisBP:0   MisRate:0.00%    MPKI:0.00
PC:1564c     Total:36364      MisBP:0   MisRate:0.00%    MPKI:0.00
PC:131a6     Total:1      MisBP:0   MisRate:0.00%    MPKI:0.00
PC:15964     Total:35843      MisBP:0   MisRate:0.00%    MPKI:0.00
PC:29750     Total:237      MisBP:0   MisRate:0.00%    MPKI:0.00
PC:15648     Total:36364      MisBP:0   MisRate:0.00%    MPKI:0.00
PC:131a2     Total:1      MisBP:0   MisRate:0.00%    MPKI:0.00
PC:15960     Total:35843      MisBP:0   MisRate:0.00%    MPKI:0.00
PC:1319c     Total:1      MisBP:0   MisRate:0.00%    MPKI:0.00
PC:1595a     Total:35843      MisBP:0   MisRate:0.00%    MPKI:0.00
PC:29740     Total:238      MisBP:0   MisRate:0.00%    MPKI:0.00
PC:1596c     Total:35842      MisBP:0   MisRate:0.00%    MPKI:0.00
PC:13192     Total:593      MisBP:0   MisRate:0.00%    MPKI:0.00
PC:15950     Total:35846      MisBP:0   MisRate:0.00%    MPKI:0.00
PC:2973c     Total:239      MisBP:0   MisRate:0.00%    MPKI:0.00
PC:15634     Total:36329      MisBP:0   MisRate:0.00%    MPKI:0.00
PC:1594c     Total:35846      MisBP:0   MisRate:0.00%    MPKI:0.00
PC:29734     Total:239      MisBP:0   MisRate:0.00%    MPKI:0.00
PC:1562c     Total:36209      MisBP:0   MisRate:0.00%    MPKI:0.00
PC:15944     Total:35846      MisBP:0   MisRate:0.00%    MPKI:0.00
PC:2972c     Total:239      MisBP:0   MisRate:0.00%    MPKI:0.00
PC:15624     Total:36210      MisBP:0   MisRate:0.00%    MPKI:0.00
PC:15694     Total:36629      MisBP:0   MisRate:0.00%    MPKI:0.00
PC:159ce     Total:35994      MisBP:0   MisRate:0.00%    MPKI:0.00
PC:159be     Total:35967      MisBP:0   MisRate:0.00%    MPKI:0.00
PC:14180     Total:2      MisBP:0   MisRate:0.00%    MPKI:0.00
PC:191c2     Total:6      MisBP:0   MisRate:0.00%    MPKI:0.00
PC:159ba     Total:35967      MisBP:0   MisRate:0.00%    MPKI:0.00
PC:1417c     Total:48      MisBP:0   MisRate:0.00%    MPKI:0.00
PC:191be     Total:6      MisBP:0   MisRate:0.00%    MPKI:0.00
PC:190f8     Total:6      MisBP:0   MisRate:0.00%    MPKI:0.00
PC:140b6     Total:214      MisBP:0   MisRate:0.00%    MPKI:0.00
PC:159b2     Total:35914      MisBP:0   MisRate:0.00%    MPKI:0.00
PC:2979c     Total:50      MisBP:0   MisRate:0.00%    MPKI:0.00
PC:156e4     Total:36753      MisBP:0   MisRate:0.00%    MPKI:0.00
PC:159ac     Total:35914      MisBP:0   MisRate:0.00%    MPKI:0.00
PC:159a6     Total:35910      MisBP:0   MisRate:0.00%    MPKI:0.00
PC:190e4     Total:6      MisBP:0   MisRate:0.00%    MPKI:0.00
PC:140a2     Total:214      MisBP:0   MisRate:0.00%    MPKI:0.00
PC:1598e     Total:35814      MisBP:0   MisRate:0.00%    MPKI:0.00
PC:15976     Total:35838      MisBP:0   MisRate:0.00%    MPKI:0.00
PC:15972     Total:35840      MisBP:0   MisRate:0.00%    MPKI:0.00
PC:2975c     Total:237      MisBP:0   MisRate:0.00%    MPKI:0.00
PC:15654     Total:36362      MisBP:0   MisRate:0.00%    MPKI:0.00
PC:131ae     Total:1      MisBP:0   MisRate:0.00%    MPKI:0.00
PC:153d6     Total:26      MisBP:0   MisRate:0.00%    MPKI:0.00
PC:153ea     Total:36444      MisBP:0   MisRate:0.00%    MPKI:0.00
PC:15c92     Total:36402      MisBP:0   MisRate:0.00%    MPKI:0.00
PC:15c90     Total:36443      MisBP:0   MisRate:0.00%    MPKI:0.00
PC:153e6     Total:26      MisBP:0   MisRate:0.00%    MPKI:0.00
PC:15c8e     Total:36443      MisBP:0   MisRate:0.00%    MPKI:0.00
PC:15c8a     Total:36443      MisBP:0   MisRate:0.00%    MPKI:0.00
PC:15c88     Total:36443      MisBP:0   MisRate:0.00%    MPKI:0.00
PC:153de     Total:26      MisBP:0   MisRate:0.00%    MPKI:0.00
PC:153da     Total:26      MisBP:0   MisRate:0.00%    MPKI:0.00
PC:15c82     Total:36501      MisBP:0   MisRate:0.00%    MPKI:0.00
PC:15c80     Total:36501      MisBP:0   MisRate:0.00%    MPKI:0.00
PC:15c96     Total:36402      MisBP:0   MisRate:0.00%    MPKI:0.00
PC:15c7c     Total:36645      MisBP:0   MisRate:0.00%    MPKI:0.00
PC:15c78     Total:36645      MisBP:0   MisRate:0.00%    MPKI:0.00
PC:153ce     Total:19      MisBP:0   MisRate:0.00%    MPKI:0.00
PC:15c76     Total:36645      MisBP:0   MisRate:0.00%    MPKI:0.00
PC:15c74     Total:36755      MisBP:0   MisRate:0.00%    MPKI:0.00
PC:153ca     Total:54      MisBP:0   MisRate:0.00%    MPKI:0.00
PC:15c6e     Total:36819      MisBP:0   MisRate:0.00%    MPKI:0.00
PC:153c4     Total:54      MisBP:0   MisRate:0.00%    MPKI:0.00
PC:294cc     Total:508      MisBP:0   MisRate:0.00%    MPKI:0.00
PC:15c6a     Total:36819      MisBP:0   MisRate:0.00%    MPKI:0.00
PC:15ca6     Total:36264      MisBP:0   MisRate:0.00%    MPKI:0.00
PC:15cba     Total:36298      MisBP:0   MisRate:0.00%    MPKI:0.00
PC:15cb8     Total:36376      MisBP:0   MisRate:0.00%    MPKI:0.00
PC:1540e     Total:26      MisBP:0   MisRate:0.00%    MPKI:0.00
PC:15cb6     Total:36317      MisBP:0   MisRate:0.00%    MPKI:0.00
PC:1540c     Total:26      MisBP:0   MisRate:0.00%    MPKI:0.00
PC:29514     Total:3334      MisBP:0   MisRate:0.00%    MPKI:0.00
PC:15cb2     Total:36317      MisBP:0   MisRate:0.00%    MPKI:0.00
PC:29510     Total:3334      MisBP:0   MisRate:0.00%    MPKI:0.00
PC:15cae     Total:36266      MisBP:0   MisRate:0.00%    MPKI:0.00
PC:15cac     Total:36261      MisBP:0   MisRate:0.00%    MPKI:0.00
PC:15caa     Total:36264      MisBP:0   MisRate:0.00%    MPKI:0.00
PC:153c0     Total:6917      MisBP:0   MisRate:0.00%    MPKI:0.00
PC:153fc     Total:932424      MisBP:0   MisRate:0.00%    MPKI:0.00
PC:29504     Total:3334      MisBP:0   MisRate:0.00%    MPKI:0.00
PC:15ca4     Total:36365      MisBP:0   MisRate:0.00%    MPKI:0.00
PC:153fa     Total:36434      MisBP:0   MisRate:0.00%    MPKI:0.00
PC:18b38     Total:69      MisBP:0   MisRate:0.00%    MPKI:0.00
PC:15ca2     Total:36367      MisBP:0   MisRate:0.00%    MPKI:0.00
PC:15c9e     Total:36367      MisBP:0   MisRate:0.00%    MPKI:0.00
PC:15c9c     Total:36367      MisBP:0   MisRate:0.00%    MPKI:0.00
PC:153f2     Total:36440      MisBP:0   MisRate:0.00%    MPKI:0.00
PC:18b30     Total:71      MisBP:0   MisRate:0.00%    MPKI:0.00
PC:18c78     Total:66062      MisBP:0   MisRate:0.00%    MPKI:0.00
PC:1dbfa     Total:567      MisBP:0   MisRate:0.00%    MPKI:0.00
PC:18bb8     Total:15834      MisBP:0   MisRate:0.00%    MPKI:0.00
PC:1526a     Total:17      MisBP:0   MisRate:0.00%    MPKI:0.00
PC:1dc0e     Total:11      MisBP:0   MisRate:0.00%    MPKI:0.00
PC:18bcc     Total:15401      MisBP:0   MisRate:0.00%    MPKI:0.00
PC:164d4     Total:36462      MisBP:0   MisRate:0.00%    MPKI:0.00
PC:13352     Total:452      MisBP:0   MisRate:0.00%    MPKI:0.00
PC:15b10     Total:36487      MisBP:0   MisRate:0.00%    MPKI:0.00
PC:18c8e     Total:13510      MisBP:0   MisRate:0.00%    MPKI:0.00
PC:164d0     Total:36543      MisBP:0   MisRate:0.00%    MPKI:0.00
PC:15b0e     Total:36522      MisBP:0   MisRate:0.00%    MPKI:0.00
PC:18c7e     Total:64883      MisBP:0   MisRate:0.00%    MPKI:0.00
PC:1dbf4     Total:1142      MisBP:0   MisRate:0.00%    MPKI:0.00
PC:18bb2     Total:15882      MisBP:0   MisRate:0.00%    MPKI:0.00
PC:15264     Total:17      MisBP:0   MisRate:0.00%    MPKI:0.00
PC:2936c     Total:10      MisBP:0   MisRate:0.00%    MPKI:0.00
PC:1334c     Total:46      MisBP:0   MisRate:0.00%    MPKI:0.00
PC:15b0a     Total:36489      MisBP:0   MisRate:0.00%    MPKI:0.00
PC:18c74     Total:66245      MisBP:0   MisRate:0.00%    MPKI:0.00
PC:1dbf0     Total:618      MisBP:0   MisRate:0.00%    MPKI:0.00
PC:18bae     Total:83      MisBP:0   MisRate:0.00%    MPKI:0.00
PC:15260     Total:16      MisBP:0   MisRate:0.00%    MPKI:0.00
PC:15270     Total:17      MisBP:0   MisRate:0.00%    MPKI:0.00
PC:294c8     Total:254      MisBP:0   MisRate:0.00%    MPKI:0.00
PC:15c64     Total:36763      MisBP:0   MisRate:0.00%    MPKI:0.00
PC:153ba     Total:61      MisBP:0   MisRate:0.00%    MPKI:0.00
PC:15c5e     Total:36866      MisBP:0   MisRate:0.00%    MPKI:0.00
PC:153b4     Total:61      MisBP:0   MisRate:0.00%    MPKI:0.00
PC:294bc     Total:528      MisBP:0   MisRate:0.00%    MPKI:0.00
PC:153aa     Total:13      MisBP:0   MisRate:0.00%    MPKI:0.00
PC:13360     Total:2      MisBP:0   MisRate:0.00%    MPKI:0.00
PC:15b1e     Total:36632      MisBP:0   MisRate:0.00%    MPKI:0.00
PC:164de     Total:36464      MisBP:0   MisRate:0.00%    MPKI:0.00
PC:15b1a     Total:36633      MisBP:0   MisRate:0.00%    MPKI:0.00
PC:15412     Total:26      MisBP:0   MisRate:0.00%    MPKI:0.00
PC:29378     Total:10      MisBP:0   MisRate:0.00%    MPKI:0.00
PC:1dc14     Total:11      MisBP:0   MisRate:0.00%    MPKI:0.00
PC:18bd2     Total:14819      MisBP:0   MisRate:0.00%    MPKI:0.00
PC:164da     Total:36464      MisBP:0   MisRate:0.00%    MPKI:0.00
PC:15b18     Total:36500      MisBP:0   MisRate:0.00%    MPKI:0.00
PC:1526e     Total:17      MisBP:0   MisRate:0.00%    MPKI:0.00
PC:1dc12     Total:22      MisBP:0   MisRate:0.00%    MPKI:0.00
PC:18c96     Total:13486      MisBP:0   MisRate:0.00%    MPKI:0.00
PC:164d8     Total:36462      MisBP:0   MisRate:0.00%    MPKI:0.00
PC:15b14     Total:36487      MisBP:0   MisRate:0.00%    MPKI:0.00
PC:1416a     Total:117      MisBP:0   MisRate:0.00%    MPKI:0.00
PC:294b8     Total:264      MisBP:0   MisRate:0.00%    MPKI:0.00
PC:12f0a     Total:11      MisBP:0   MisRate:0.00%    MPKI:0.00
PC:12f08     Total:11      MisBP:0   MisRate:0.00%    MPKI:0.00
PC:156c6     Total:36725      MisBP:0   MisRate:0.00%    MPKI:0.00
PC:294b4     Total:528      MisBP:0   MisRate:0.00%    MPKI:0.00
PC:153ac     Total:13      MisBP:0   MisRate:0.00%    MPKI:0.00
PC:12f06     Total:11      MisBP:0   MisRate:0.00%    MPKI:0.00
PC:156c4     Total:36725      MisBP:0   MisRate:0.00%    MPKI:0.00
PC:297cc     Total:74      MisBP:0   MisRate:0.00%    MPKI:0.00
PC:1416e     Total:117      MisBP:0   MisRate:0.00%    MPKI:0.00
PC:1692c     Total:14      MisBP:0   MisRate:0.00%    MPKI:0.00
PC:16932     Total:14      MisBP:0   MisRate:0.00%    MPKI:0.00
PC:191ac     Total:6      MisBP:0   MisRate:0.00%    MPKI:0.00
PC:16928     Total:14      MisBP:0   MisRate:0.00%    MPKI:0.00
PC:156ba     Total:36802      MisBP:0   MisRate:0.00%    MPKI:0.00
PC:156b6     Total:36802      MisBP:0   MisRate:0.00%    MPKI:0.00
PC:1415e     Total:451      MisBP:0   MisRate:0.00%    MPKI:0.00
PC:1691c     Total:14      MisBP:0   MisRate:0.00%    MPKI:0.00
PC:156b2     Total:36806      MisBP:0   MisRate:0.00%    MPKI:0.00
PC:16918     Total:14      MisBP:0   MisRate:0.00%    MPKI:0.00
PC:156ae     Total:36751      MisBP:0   MisRate:0.00%    MPKI:0.00
PC:16914     Total:14      MisBP:0   MisRate:0.00%    MPKI:0.00
PC:12f18     Total:11      MisBP:0   MisRate:0.00%    MPKI:0.00
PC:297ec     Total:1847      MisBP:0   MisRate:0.00%    MPKI:0.00
PC:1418e     Total:2      MisBP:0   MisRate:0.00%    MPKI:0.00
PC:1694c     Total:1167      MisBP:0   MisRate:0.00%    MPKI:0.00
PC:294d0     Total:254      MisBP:0   MisRate:0.00%    MPKI:0.00
PC:12f22     Total:2      MisBP:0   MisRate:0.00%    MPKI:0.00
PC:156e0     Total:36753      MisBP:0   MisRate:0.00%    MPKI:0.00
PC:297e8     Total:74      MisBP:0   MisRate:0.00%    MPKI:0.00
PC:16948     Total:1167      MisBP:0   MisRate:0.00%    MPKI:0.00
PC:12f20     Total:2      MisBP:0   MisRate:0.00%    MPKI:0.00
PC:156de     Total:36753      MisBP:0   MisRate:0.00%    MPKI:0.00
PC:156da     Total:36753      MisBP:0   MisRate:0.00%    MPKI:0.00
PC:12eec     Total:30      MisBP:0   MisRate:0.00%    MPKI:0.00
PC:156d6     Total:36755      MisBP:0   MisRate:0.00%    MPKI:0.00
PC:1693c     Total:1169      MisBP:0   MisRate:0.00%    MPKI:0.00
PC:12f14     Total:11      MisBP:0   MisRate:0.00%    MPKI:0.00
PC:156d2     Total:36725      MisBP:0   MisRate:0.00%    MPKI:0.00
PC:16938     Total:2338      MisBP:0   MisRate:0.00%    MPKI:0.00
PC:12f10     Total:11      MisBP:0   MisRate:0.00%    MPKI:0.00
PC:156ce     Total:36725      MisBP:0   MisRate:0.00%    MPKI:0.00
PC:12f0c     Total:11      MisBP:0   MisRate:0.00%    MPKI:0.00
PC:156ca     Total:36725      MisBP:0   MisRate:0.00%    MPKI:0.00
PC:14174     Total:116      MisBP:0   MisRate:0.00%    MPKI:0.00
PC:15cd0     Total:36226      MisBP:0   MisRate:0.00%    MPKI:0.00
PC:15ce4     Total:36264      MisBP:0   MisRate:0.00%    MPKI:0.00
PC:1543a     Total:2222      MisBP:0   MisRate:0.00%    MPKI:0.00
PC:15cda     Total:36325      MisBP:0   MisRate:0.00%    MPKI:0.00
PC:15430     Total:1087      MisBP:0   MisRate:0.00%    MPKI:0.00
PC:29538     Total:3332      MisBP:0   MisRate:0.00%    MPKI:0.00
PC:15cd8     Total:36325      MisBP:0   MisRate:0.00%    MPKI:0.00
PC:1542e     Total:190      MisBP:0   MisRate:0.00%    MPKI:0.00
PC:15cd6     Total:36325      MisBP:0   MisRate:0.00%    MPKI:0.00
PC:1542c     Total:191      MisBP:0   MisRate:0.00%    MPKI:0.00
PC:29534     Total:3332      MisBP:0   MisRate:0.00%    MPKI:0.00
PC:15cd2     Total:36275      MisBP:0   MisRate:0.00%    MPKI:0.00
PC:16904     Total:14      MisBP:0   MisRate:0.00%    MPKI:0.00
PC:15426     Total:191      MisBP:0   MisRate:0.00%    MPKI:0.00
PC:15ccc     Total:36285      MisBP:0   MisRate:0.00%    MPKI:0.00
PC:15422     Total:382      MisBP:0   MisRate:0.00%    MPKI:0.00
PC:15cc8     Total:36284      MisBP:0   MisRate:0.00%    MPKI:0.00
PC:1541e     Total:26      MisBP:0   MisRate:0.00%    MPKI:0.00
PC:15cc4     Total:36284      MisBP:0   MisRate:0.00%    MPKI:0.00
PC:1541a     Total:26      MisBP:0   MisRate:0.00%    MPKI:0.00
PC:15cc0     Total:36221      MisBP:0   MisRate:0.00%    MPKI:0.00
PC:15416     Total:26      MisBP:0   MisRate:0.00%    MPKI:0.00
PC:15cbc     Total:36298      MisBP:0   MisRate:0.00%    MPKI:0.00
PC:12ee6     Total:38      MisBP:0   MisRate:0.00%    MPKI:0.00
PC:156aa     Total:36751      MisBP:0   MisRate:0.00%    MPKI:0.00
PC:16912     Total:14      MisBP:0   MisRate:0.00%    MPKI:0.00
PC:29498     Total:25      MisBP:0   MisRate:0.00%    MPKI:0.00
PC:15390     Total:2      MisBP:0   MisRate:0.00%    MPKI:0.00
PC:156a8     Total:36751      MisBP:0   MisRate:0.00%    MPKI:0.00
PC:297b0     Total:100      MisBP:0   MisRate:0.00%    MPKI:0.00
PC:14150     Total:317      MisBP:0   MisRate:0.00%    MPKI:0.00
PC:19192     Total:6      MisBP:0   MisRate:0.00%    MPKI:0.00
PC:1690e     Total:14      MisBP:0   MisRate:0.00%    MPKI:0.00
PC:29494     Total:25      MisBP:0   MisRate:0.00%    MPKI:0.00
PC:1538c     Total:2      MisBP:0   MisRate:0.00%    MPKI:0.00
PC:15b12     Total:36487      MisBP:0   MisRate:0.00%    MPKI:0.00
PC:1690c     Total:14      MisBP:0   MisRate:0.00%    MPKI:0.00
PC:156a2     Total:36754      MisBP:0   MisRate:0.00%    MPKI:0.00
PC:1918c     Total:6      MisBP:0   MisRate:0.00%    MPKI:0.00
PC:16908     Total:14      MisBP:0   MisRate:0.00%    MPKI:0.00
PC:16906     Total:14      MisBP:0   MisRate:0.00%    MPKI:0.00
PC:2948c     Total:25      MisBP:0   MisRate:0.00%    MPKI:0.00
PC:1569c     Total:36629      MisBP:0   MisRate:0.00%    MPKI:0.00
PC:297a4     Total:50      MisBP:0   MisRate:0.00%    MPKI:0.00
PC:14146     Total:409      MisBP:0   MisRate:0.00%    MPKI:0.00
PC:19188     Total:6      MisBP:0   MisRate:0.00%    MPKI:0.00
PC:18de8     Total:50      MisBP:0   MisRate:0.00%    MPKI:0.00
PC:1663c     Total:1749      MisBP:0   MisRate:0.00%    MPKI:0.00
PC:18dfa     Total:25      MisBP:0   MisRate:0.00%    MPKI:0.00
PC:16638     Total:1749      MisBP:0   MisRate:0.00%    MPKI:0.00
PC:39806     Total:1      MisBP:0   MisRate:0.00%    MPKI:0.00
PC:18df6     Total:25      MisBP:0   MisRate:0.00%    MPKI:0.00
PC:18df2     Total:25      MisBP:0   MisRate:0.00%    MPKI:0.00
PC:16630     Total:20      MisBP:0   MisRate:0.00%    MPKI:0.00
PC:18dee     Total:25      MisBP:0   MisRate:0.00%    MPKI:0.00
PC:18dec     Total:25      MisBP:0   MisRate:0.00%    MPKI:0.00
PC:1662a     Total:20      MisBP:0   MisRate:0.00%    MPKI:0.00
PC:397f8     Total:4      MisBP:0   MisRate:0.00%    MPKI:0.00
PC:18dfe     Total:19      MisBP:0   MisRate:0.00%    MPKI:0.00
PC:16628     Total:20      MisBP:0   MisRate:0.00%    MPKI:0.00
PC:18de6     Total:16      MisBP:0   MisRate:0.00%    MPKI:0.00
PC:18de4     Total:16      MisBP:0   MisRate:0.00%    MPKI:0.00
PC:16624     Total:20      MisBP:0   MisRate:0.00%    MPKI:0.00
PC:397f2     Total:1      MisBP:0   MisRate:0.00%    MPKI:0.00
PC:16622     Total:20      MisBP:0   MisRate:0.00%    MPKI:0.00
PC:16620     Total:20      MisBP:0   MisRate:0.00%    MPKI:0.00
PC:397ee     Total:1      MisBP:0   MisRate:0.00%    MPKI:0.00
PC:18dde     Total:9782      MisBP:0   MisRate:0.00%    MPKI:0.00
PC:18ddc     Total:9788      MisBP:0   MisRate:0.00%    MPKI:0.00
PC:18e40     Total:2      MisBP:0   MisRate:0.00%    MPKI:0.00
PC:1550c     Total:13      MisBP:0   MisRate:0.00%    MPKI:0.00
PC:29614     Total:3317      MisBP:0   MisRate:0.00%    MPKI:0.00
PC:15508     Total:13      MisBP:0   MisRate:0.00%    MPKI:0.00
PC:29610     Total:3317      MisBP:0   MisRate:0.00%    MPKI:0.00
PC:2960c     Total:3317      MisBP:0   MisRate:0.00%    MPKI:0.00
PC:15502     Total:13      MisBP:0   MisRate:0.00%    MPKI:0.00
PC:18e4a     Total:561      MisBP:0   MisRate:0.00%    MPKI:0.00
PC:18e48     Total:81      MisBP:0   MisRate:0.00%    MPKI:0.00
PC:18e44     Total:81      MisBP:0   MisRate:0.00%    MPKI:0.00
PC:16684     Total:110      MisBP:0   MisRate:0.00%    MPKI:0.00
PC:18e42     Total:2      MisBP:0   MisRate:0.00%    MPKI:0.00
PC:1661c     Total:8      MisBP:0   MisRate:0.00%    MPKI:0.00
PC:18c46     Total:600      MisBP:0   MisRate:0.00%    MPKI:0.00
PC:16648     Total:23      MisBP:0   MisRate:0.00%    MPKI:0.00
PC:39816     Total:1      MisBP:0   MisRate:0.00%    MPKI:0.00
PC:18e06     Total:9      MisBP:0   MisRate:0.00%    MPKI:0.00
PC:16646     Total:23      MisBP:0   MisRate:0.00%    MPKI:0.00
PC:18e04     Total:19      MisBP:0   MisRate:0.00%    MPKI:0.00
PC:39812     Total:1      MisBP:0   MisRate:0.00%    MPKI:0.00
PC:18e02     Total:19      MisBP:0   MisRate:0.00%    MPKI:0.00
PC:16640     Total:1735      MisBP:0   MisRate:0.00%    MPKI:0.00
PC:3980e     Total:1      MisBP:0   MisRate:0.00%    MPKI:0.00
PC:165ec     Total:158039      MisBP:0   MisRate:0.00%    MPKI:0.00
PC:18db4     Total:19287      MisBP:0   MisRate:0.00%    MPKI:0.00
PC:165f4     Total:78929      MisBP:0   MisRate:0.00%    MPKI:0.00
PC:397c2     Total:1      MisBP:0   MisRate:0.00%    MPKI:0.00
PC:18db2     Total:89      MisBP:0   MisRate:0.00%    MPKI:0.00
PC:165f2     Total:78994      MisBP:0   MisRate:0.00%    MPKI:0.00
PC:397c0     Total:1      MisBP:0   MisRate:0.00%    MPKI:0.00
PC:18db0     Total:89      MisBP:0   MisRate:0.00%    MPKI:0.00
PC:165f0     Total:78999      MisBP:0   MisRate:0.00%    MPKI:0.00
PC:397be     Total:1      MisBP:0   MisRate:0.00%    MPKI:0.00
PC:18dae     Total:89      MisBP:0   MisRate:0.00%    MPKI:0.00
PC:18dac     Total:89      MisBP:0   MisRate:0.00%    MPKI:0.00
PC:165f6     Total:78918      MisBP:0   MisRate:0.00%    MPKI:0.00
PC:397ba     Total:1      MisBP:0   MisRate:0.00%    MPKI:0.00
PC:18daa     Total:89      MisBP:0   MisRate:0.00%    MPKI:0.00
PC:165ea     Total:11952      MisBP:0   MisRate:0.00%    MPKI:0.00
PC:397b8     Total:1      MisBP:0   MisRate:0.00%    MPKI:0.00
PC:18da8     Total:89      MisBP:0   MisRate:0.00%    MPKI:0.00
PC:397b4     Total:1      MisBP:0   MisRate:0.00%    MPKI:0.00
PC:18da4     Total:89      MisBP:0   MisRate:0.00%    MPKI:0.00
PC:165e4     Total:17044      MisBP:0   MisRate:0.00%    MPKI:0.00
PC:397b2     Total:1      MisBP:0   MisRate:0.00%    MPKI:0.00
PC:18da2     Total:89      MisBP:0   MisRate:0.00%    MPKI:0.00
PC:18dc8     Total:273384      MisBP:0   MisRate:0.00%    MPKI:0.00
PC:18dda     Total:9788      MisBP:0   MisRate:0.00%    MPKI:0.00
PC:1661a     Total:8      MisBP:0   MisRate:0.00%    MPKI:0.00
PC:18dd8     Total:9792      MisBP:0   MisRate:0.00%    MPKI:0.00
PC:18dd4     Total:19644      MisBP:0   MisRate:0.00%    MPKI:0.00
PC:16614     Total:8      MisBP:0   MisRate:0.00%    MPKI:0.00
PC:18dd2     Total:9851      MisBP:0   MisRate:0.00%    MPKI:0.00
PC:16612     Total:8      MisBP:0   MisRate:0.00%    MPKI:0.00
PC:16610     Total:8      MisBP:0   MisRate:0.00%    MPKI:0.00
PC:18dce     Total:270830      MisBP:0   MisRate:0.00%    MPKI:0.00
PC:18dca     Total:272177      MisBP:0   MisRate:0.00%    MPKI:0.00
PC:1660a     Total:8      MisBP:0   MisRate:0.00%    MPKI:0.00
PC:1550e     Total:13      MisBP:0   MisRate:0.00%    MPKI:0.00
PC:18dc4     Total:273576      MisBP:0   MisRate:0.00%    MPKI:0.00
PC:18dc2     Total:9397      MisBP:0   MisRate:0.00%    MPKI:0.00
PC:16602     Total:37778      MisBP:0   MisRate:0.00%    MPKI:0.00
PC:18dbe     Total:9637      MisBP:0   MisRate:0.00%    MPKI:0.00
PC:165fe     Total:18890      MisBP:0   MisRate:0.00%    MPKI:0.00
PC:18dbc     Total:9639      MisBP:0   MisRate:0.00%    MPKI:0.00
PC:165fc     Total:20103      MisBP:0   MisRate:0.00%    MPKI:0.00
PC:18dba     Total:9641      MisBP:0   MisRate:0.00%    MPKI:0.00
PC:165fa     Total:12757      MisBP:0   MisRate:0.00%    MPKI:0.00
PC:18db8     Total:9643      MisBP:0   MisRate:0.00%    MPKI:0.00
PC:18e78     Total:23727      MisBP:0   MisRate:0.00%    MPKI:0.00
PC:18e8a     Total:190      MisBP:0   MisRate:0.00%    MPKI:0.00
PC:166ca     Total:1872      MisBP:0   MisRate:0.00%    MPKI:0.00
PC:18e88     Total:190      MisBP:0   MisRate:0.00%    MPKI:0.00
PC:18e86     Total:190      MisBP:0   MisRate:0.00%    MPKI:0.00
PC:166c6     Total:62      MisBP:0   MisRate:0.00%    MPKI:0.00
PC:166c4     Total:62      MisBP:0   MisRate:0.00%    MPKI:0.00
PC:18e82     Total:23680      MisBP:0   MisRate:0.00%    MPKI:0.00
PC:18e80     Total:23680      MisBP:0   MisRate:0.00%    MPKI:0.00
PC:18e7c     Total:23727      MisBP:0   MisRate:0.00%    MPKI:0.00
PC:166bc     Total:7      MisBP:0   MisRate:0.00%    MPKI:0.00
PC:18e7a     Total:23727      MisBP:0   MisRate:0.00%    MPKI:0.00
PC:166ce     Total:936      MisBP:0   MisRate:0.00%    MPKI:0.00
PC:166b8     Total:7      MisBP:0   MisRate:0.00%    MPKI:0.00
PC:18e76     Total:23727      MisBP:0   MisRate:0.00%    MPKI:0.00
PC:166b4     Total:53      MisBP:0   MisRate:0.00%    MPKI:0.00
PC:18e72     Total:47454      MisBP:0   MisRate:0.00%    MPKI:0.00
PC:18e70     Total:206      MisBP:0   MisRate:0.00%    MPKI:0.00
PC:166b0     Total:55      MisBP:0   MisRate:0.00%    MPKI:0.00
PC:18e6e     Total:206      MisBP:0   MisRate:0.00%    MPKI:0.00
PC:166ae     Total:6      MisBP:0   MisRate:0.00%    MPKI:0.00
PC:18e6c     Total:206      MisBP:0   MisRate:0.00%    MPKI:0.00
PC:166aa     Total:6      MisBP:0   MisRate:0.00%    MPKI:0.00
PC:14a22     Total:961556      MisBP:0   MisRate:0.00%    MPKI:0.00
PC:14a44     Total:517841      MisBP:0   MisRate:0.00%    MPKI:0.00
PC:14a40     Total:517867      MisBP:0   MisRate:0.00%    MPKI:0.00
PC:14a3c     Total:547257      MisBP:0   MisRate:0.00%    MPKI:0.00
PC:14a3a     Total:547285      MisBP:0   MisRate:0.00%    MPKI:0.00
PC:14a38     Total:547344      MisBP:0   MisRate:0.00%    MPKI:0.00
PC:14a36     Total:547432      MisBP:0   MisRate:0.00%    MPKI:0.00
PC:14a32     Total:541998      MisBP:0   MisRate:0.00%    MPKI:0.00
PC:14a30     Total:542737      MisBP:0   MisRate:0.00%    MPKI:0.00
PC:14a2a     Total:961277      MisBP:0   MisRate:0.00%    MPKI:0.00
PC:14a28     Total:961407      MisBP:0   MisRate:0.00%    MPKI:0.00
PC:14a26     Total:961455      MisBP:0   MisRate:0.00%    MPKI:0.00
PC:18e68     Total:206      MisBP:0   MisRate:0.00%    MPKI:0.00
PC:14a20     Total:2885422      MisBP:0   MisRate:0.00%    MPKI:0.00
PC:166ac     Total:6      MisBP:0   MisRate:0.00%    MPKI:0.00
PC:166a2     Total:54      MisBP:0   MisRate:0.00%    MPKI:0.00
PC:1669c     Total:6      MisBP:0   MisRate:0.00%    MPKI:0.00
PC:16694     Total:57      MisBP:0   MisRate:0.00%    MPKI:0.00
PC:16690     Total:1530      MisBP:0   MisRate:0.00%    MPKI:0.00
PC:1668e     Total:750      MisBP:0   MisRate:0.00%    MPKI:0.00
PC:16688     Total:2988      MisBP:0   MisRate:0.00%    MPKI:0.00
PC:166d0     Total:936      MisBP:0   MisRate:0.00%    MPKI:0.00
PC:18e8e     Total:76      MisBP:0   MisRate:0.00%    MPKI:0.00
PC:397ae     Total:1      MisBP:0   MisRate:0.00%    MPKI:0.00
PC:16636     Total:1749      MisBP:0   MisRate:0.00%    MPKI:0.00
PC:39804     Total:1      MisBP:0   MisRate:0.00%    MPKI:0.00
PC:16632     Total:3498      MisBP:0   MisRate:0.00%    MPKI:0.00
PC:1662c     Total:20      MisBP:0   MisRate:0.00%    MPKI:0.00
PC:397fa     Total:4      MisBP:0   MisRate:0.00%    MPKI:0.00
PC:16618     Total:8      MisBP:0   MisRate:0.00%    MPKI:0.00
PC:1660e     Total:8      MisBP:0   MisRate:0.00%    MPKI:0.00
PC:16608     Total:8      MisBP:0   MisRate:0.00%    MPKI:0.00
PC:165e8     Total:11956      MisBP:0   MisRate:0.00%    MPKI:0.00
PC:397b6     Total:1      MisBP:0   MisRate:0.00%    MPKI:0.00
PC:165e0     Total:17045      MisBP:0   MisRate:0.00%    MPKI:0.00
PC:39808     Total:1      MisBP:0   MisRate:0.00%    MPKI:0.00
PC:165ce     Total:3      MisBP:0   MisRate:0.00%    MPKI:0.00
PC:3979c     Total:3      MisBP:0   MisRate:0.00%    MPKI:0.00
PC:165c2     Total:3      MisBP:0   MisRate:0.00%    MPKI:0.00
PC:39790     Total:5      MisBP:0   MisRate:0.00%    MPKI:0.00
PC:13178     Total:637      MisBP:0   MisRate:0.00%    MPKI:0.00
PC:165a6     Total:2      MisBP:0   MisRate:0.00%    MPKI:0.00
PC:39774     Total:6      MisBP:0   MisRate:0.00%    MPKI:0.00
PC:165a0     Total:2      MisBP:0   MisRate:0.00%    MPKI:0.00
PC:3976e     Total:12      MisBP:0   MisRate:0.00%    MPKI:0.00
PC:15512     Total:13      MisBP:0   MisRate:0.00%    MPKI:0.00
PC:1667e     Total:6      MisBP:0   MisRate:0.00%    MPKI:0.00
PC:166a6     Total:54      MisBP:0   MisRate:0.00%    MPKI:0.00
PC:18e64     Total:22      MisBP:0   MisRate:0.00%    MPKI:0.00
PC:166a4     Total:54      MisBP:0   MisRate:0.00%    MPKI:0.00
PC:18e62     Total:22      MisBP:0   MisRate:0.00%    MPKI:0.00
PC:18e5e     Total:22      MisBP:0   MisRate:0.00%    MPKI:0.00
PC:1669e     Total:108      MisBP:0   MisRate:0.00%    MPKI:0.00
PC:18e5c     Total:22      MisBP:0   MisRate:0.00%    MPKI:0.00
PC:18e58     Total:23      MisBP:0   MisRate:0.00%    MPKI:0.00
PC:16698     Total:6      MisBP:0   MisRate:0.00%    MPKI:0.00
PC:18e56     Total:126      MisBP:0   MisRate:0.00%    MPKI:0.00
PC:18e54     Total:21      MisBP:0   MisRate:0.00%    MPKI:0.00
PC:165e2     Total:17045      MisBP:0   MisRate:0.00%    MPKI:0.00
PC:1667a     Total:6      MisBP:0   MisRate:0.00%    MPKI:0.00
PC:1666c     Total:15      MisBP:0   MisRate:0.00%    MPKI:0.00
PC:16664     Total:23      MisBP:0   MisRate:0.00%    MPKI:0.00
PC:1665a     Total:23      MisBP:0   MisRate:0.00%    MPKI:0.00
PC:16656     Total:23      MisBP:0   MisRate:0.00%    MPKI:0.00
PC:39824     Total:1      MisBP:0   MisRate:0.00%    MPKI:0.00
PC:16642     Total:1735      MisBP:0   MisRate:0.00%    MPKI:0.00
PC:1663e     Total:1749      MisBP:0   MisRate:0.00%    MPKI:0.00
PC:3980c     Total:1      MisBP:0   MisRate:0.00%    MPKI:0.00
PC:1663a     Total:1749      MisBP:0   MisRate:0.00%    MPKI:0.00
PC:18bfa     Total:91      MisBP:0   MisRate:0.00%    MPKI:0.00
PC:16670     Total:6      MisBP:0   MisRate:0.00%    MPKI:0.00
PC:18e2e     Total:139      MisBP:0   MisRate:0.00%    MPKI:0.00
PC:18e2c     Total:32      MisBP:0   MisRate:0.00%    MPKI:0.00
PC:16668     Total:23      MisBP:0   MisRate:0.00%    MPKI:0.00
PC:18e26     Total:1043      MisBP:0   MisRate:0.00%    MPKI:0.00
PC:16666     Total:23      MisBP:0   MisRate:0.00%    MPKI:0.00
PC:18e24     Total:1043      MisBP:0   MisRate:0.00%    MPKI:0.00
PC:18e20     Total:1043      MisBP:0   MisRate:0.00%    MPKI:0.00
PC:16660     Total:23      MisBP:0   MisRate:0.00%    MPKI:0.00
PC:18e1e     Total:1044      MisBP:0   MisRate:0.00%    MPKI:0.00
PC:18e1c     Total:1044      MisBP:0   MisRate:0.00%    MPKI:0.00
PC:18e30     Total:139      MisBP:0   MisRate:0.00%    MPKI:0.00
PC:18be6     Total:93438      MisBP:0   MisRate:0.00%    MPKI:0.00
PC:18bd6     Total:81256      MisBP:0   MisRate:0.00%    MPKI:0.00
PC:1dc18     Total:11      MisBP:0   MisRate:0.00%    MPKI:0.00
PC:18bc0     Total:31115      MisBP:0   MisRate:0.00%    MPKI:0.00
PC:1dc02     Total:4      MisBP:0   MisRate:0.00%    MPKI:0.00
PC:18bb4     Total:31736      MisBP:0   MisRate:0.00%    MPKI:0.00
PC:18b9c     Total:80      MisBP:0   MisRate:0.00%    MPKI:0.00
PC:18b96     Total:80      MisBP:0   MisRate:0.00%    MPKI:0.00
PC:18b7a     Total:68      MisBP:0   MisRate:0.00%    MPKI:0.00
PC:18b72     Total:68      MisBP:0   MisRate:0.00%    MPKI:0.00
PC:18c0e     Total:86      MisBP:0   MisRate:0.00%    MPKI:0.00
PC:18d00     Total:14243      MisBP:0   MisRate:0.00%    MPKI:0.00
PC:18cf8     Total:57769      MisBP:0   MisRate:0.00%    MPKI:0.00
PC:18cf2     Total:58517      MisBP:0   MisRate:0.00%    MPKI:0.00
PC:18cea     Total:59210      MisBP:0   MisRate:0.00%    MPKI:0.00
PC:18ce6     Total:59352      MisBP:0   MisRate:0.00%    MPKI:0.00
PC:18cbc     Total:349      MisBP:0   MisRate:0.00%    MPKI:0.00
PC:1dc20     Total:11      MisBP:0   MisRate:0.00%    MPKI:0.00
PC:18c9e     Total:13401      MisBP:0   MisRate:0.00%    MPKI:0.00
PC:18c68     Total:66602      MisBP:0   MisRate:0.00%    MPKI:0.00
PC:18c26     Total:15707      MisBP:0   MisRate:0.00%    MPKI:0.00
PC:18c16     Total:83      MisBP:0   MisRate:0.00%    MPKI:0.00
PC:18b6e     Total:68      MisBP:0   MisRate:0.00%    MPKI:0.00
PC:18c02     Total:86      MisBP:0   MisRate:0.00%    MPKI:0.00
PC:16680     Total:55      MisBP:0   MisRate:0.00%    MPKI:0.00
PC:18e3e     Total:4      MisBP:0   MisRate:0.00%    MPKI:0.00
PC:1667c     Total:6      MisBP:0   MisRate:0.00%    MPKI:0.00
PC:18e3a     Total:4      MisBP:0   MisRate:0.00%    MPKI:0.00
PC:18e36     Total:4      MisBP:0   MisRate:0.00%    MPKI:0.00
PC:16676     Total:6      MisBP:0   MisRate:0.00%    MPKI:0.00
PC:18e34     Total:87      MisBP:0   MisRate:0.00%    MPKI:0.00
PC:18e32     Total:87      MisBP:0   MisRate:0.00%    MPKI:0.00
PC:16672     Total:6      MisBP:0   MisRate:0.00%    MPKI:0.00
PC:133a4     Total:1      MisBP:0   MisRate:0.00%    MPKI:0.00
PC:15bee     Total:36940      MisBP:0   MisRate:0.00%    MPKI:0.00
PC:13406     Total:412      MisBP:0   MisRate:0.00%    MPKI:0.00
PC:15bc4     Total:36832      MisBP:0   MisRate:0.00%    MPKI:0.00
PC:13402     Total:412      MisBP:0   MisRate:0.00%    MPKI:0.00
PC:15bc0     Total:36832      MisBP:0   MisRate:0.00%    MPKI:0.00
PC:15b98     Total:36907      MisBP:0   MisRate:0.00%    MPKI:0.00
PC:15b92     Total:36807      MisBP:0   MisRate:0.00%    MPKI:0.00
PC:15b8a     Total:36699      MisBP:0   MisRate:0.00%    MPKI:0.00
PC:133b2     Total:1      MisBP:0   MisRate:0.00%    MPKI:0.00
PC:15b70     Total:36652      MisBP:0   MisRate:0.00%    MPKI:0.00
PC:15b66     Total:36716      MisBP:0   MisRate:0.00%    MPKI:0.00
PC:15bf4     Total:37083      MisBP:0   MisRate:0.00%    MPKI:0.00
PC:15b62     Total:36716      MisBP:0   MisRate:0.00%    MPKI:0.00
PC:133a0     Total:1      MisBP:0   MisRate:0.00%    MPKI:0.00
PC:15b5e     Total:36718      MisBP:0   MisRate:0.00%    MPKI:0.00
PC:13394     Total:16      MisBP:0   MisRate:0.00%    MPKI:0.00
PC:15b52     Total:36461      MisBP:0   MisRate:0.00%    MPKI:0.00
PC:13376     Total:2      MisBP:0   MisRate:0.00%    MPKI:0.00
PC:15b34     Total:36599      MisBP:0   MisRate:0.00%    MPKI:0.00
PC:13362     Total:2      MisBP:0   MisRate:0.00%    MPKI:0.00
PC:15b20     Total:36622      MisBP:0   MisRate:0.00%    MPKI:0.00
PC:15b16     Total:36500      MisBP:0   MisRate:0.00%    MPKI:0.00
PC:15cb0     Total:36317      MisBP:0   MisRate:0.00%    MPKI:0.00
PC:15d7e     Total:36399      MisBP:0   MisRate:0.00%    MPKI:0.00
PC:15d4a     Total:36376      MisBP:0   MisRate:0.00%    MPKI:0.00
PC:15d2e     Total:36350      MisBP:0   MisRate:0.00%    MPKI:0.00
PC:15cfe     Total:36437      MisBP:0   MisRate:0.00%    MPKI:0.00
PC:15cfa     Total:36387      MisBP:0   MisRate:0.00%    MPKI:0.00
PC:15cde     Total:36378      MisBP:0   MisRate:0.00%    MPKI:0.00
PC:15cd4     Total:36275      MisBP:0   MisRate:0.00%    MPKI:0.00
PC:15cce     Total:36285      MisBP:0   MisRate:0.00%    MPKI:0.00
PC:15cca     Total:36285      MisBP:0   MisRate:0.00%    MPKI:0.00
PC:15cc6     Total:36284      MisBP:0   MisRate:0.00%    MPKI:0.00
PC:15cc2     Total:36284      MisBP:0   MisRate:0.00%    MPKI:0.00
PC:18d04     Total:14381      MisBP:0   MisRate:0.00%    MPKI:0.00
PC:15ca0     Total:36367      MisBP:0   MisRate:0.00%    MPKI:0.00
PC:15c98     Total:36367      MisBP:0   MisRate:0.00%    MPKI:0.00
PC:15c8c     Total:36443      MisBP:0   MisRate:0.00%    MPKI:0.00
PC:15c86     Total:36445      MisBP:0   MisRate:0.00%    MPKI:0.00
PC:15c7e     Total:36645      MisBP:0   MisRate:0.00%    MPKI:0.00
PC:15c7a     Total:36645      MisBP:0   MisRate:0.00%    MPKI:0.00
PC:15c5a     Total:36867      MisBP:0   MisRate:0.00%    MPKI:0.00
PC:15c4e     Total:36975      MisBP:0   MisRate:0.00%    MPKI:0.00
PC:15c2e     Total:37104      MisBP:0   MisRate:0.00%    MPKI:0.00
PC:15bfa     Total:37029      MisBP:0   MisRate:0.00%    MPKI:0.00
PC:16650     Total:23      MisBP:0   MisRate:0.00%    MPKI:0.00
PC:165c0     Total:3      MisBP:0   MisRate:0.00%    MPKI:0.00
PC:3978e     Total:5      MisBP:0   MisRate:0.00%    MPKI:0.00
PC:18d7e     Total:7351      MisBP:0   MisRate:0.00%    MPKI:0.00
PC:1665c     Total:23      MisBP:0   MisRate:0.00%    MPKI:0.00
PC:3982a     Total:1      MisBP:0   MisRate:0.00%    MPKI:0.00
PC:18e1a     Total:74      MisBP:0   MisRate:0.00%    MPKI:0.00
PC:16658     Total:23      MisBP:0   MisRate:0.00%    MPKI:0.00
PC:39826     Total:1      MisBP:0   MisRate:0.00%    MPKI:0.00
PC:16654     Total:23      MisBP:0   MisRate:0.00%    MPKI:0.00
PC:39822     Total:1      MisBP:0   MisRate:0.00%    MPKI:0.00
PC:18e12     Total:9725      MisBP:0   MisRate:0.00%    MPKI:0.00
PC:18d82     Total:7351      MisBP:0   MisRate:0.00%    MPKI:0.00
PC:3981e     Total:1      MisBP:0   MisRate:0.00%    MPKI:0.00
PC:18e0e     Total:9725      MisBP:0   MisRate:0.00%    MPKI:0.00
PC:18e0c     Total:9741      MisBP:0   MisRate:0.00%    MPKI:0.00
PC:1664c     Total:23      MisBP:0   MisRate:0.00%    MPKI:0.00
PC:18e0a     Total:9741      MisBP:0   MisRate:0.00%    MPKI:0.00
PC:18e08     Total:9753      MisBP:0   MisRate:0.00%    MPKI:0.00
PC:165bc     Total:30      MisBP:0   MisRate:0.00%    MPKI:0.00
PC:3978a     Total:5      MisBP:0   MisRate:0.00%    MPKI:0.00
PC:18d7a     Total:7532      MisBP:0   MisRate:0.00%    MPKI:0.00
PC:165ba     Total:30      MisBP:0   MisRate:0.00%    MPKI:0.00
PC:165d0     Total:3      MisBP:0   MisRate:0.00%    MPKI:0.00
PC:397b0     Total:1      MisBP:0   MisRate:0.00%    MPKI:0.00
PC:18da0     Total:89      MisBP:0   MisRate:0.00%    MPKI:0.00
PC:18d9c     Total:89      MisBP:0   MisRate:0.00%    MPKI:0.00
PC:165dc     Total:34090      MisBP:0   MisRate:0.00%    MPKI:0.00
PC:397aa     Total:3      MisBP:0   MisRate:0.00%    MPKI:0.00
PC:18d9a     Total:89      MisBP:0   MisRate:0.00%    MPKI:0.00
PC:18d98     Total:89      MisBP:0   MisRate:0.00%    MPKI:0.00
PC:165d8     Total:3      MisBP:0   MisRate:0.00%    MPKI:0.00
PC:397a6     Total:3      MisBP:0   MisRate:0.00%    MPKI:0.00
PC:18d96     Total:89      MisBP:0   MisRate:0.00%    MPKI:0.00
PC:165d4     Total:3      MisBP:0   MisRate:0.00%    MPKI:0.00
PC:39788     Total:5      MisBP:0   MisRate:0.00%    MPKI:0.00
PC:3979e     Total:3      MisBP:0   MisRate:0.00%    MPKI:0.00
PC:18d8e     Total:6379      MisBP:0   MisRate:0.00%    MPKI:0.00
PC:18d8a     Total:6379      MisBP:0   MisRate:0.00%    MPKI:0.00
PC:165ca     Total:3      MisBP:0   MisRate:0.00%    MPKI:0.00
PC:39798     Total:3      MisBP:0   MisRate:0.00%    MPKI:0.00
PC:18d88     Total:6379      MisBP:0   MisRate:0.00%    MPKI:0.00
PC:18d86     Total:6379      MisBP:0   MisRate:0.00%    MPKI:0.00
PC:165c6     Total:3      MisBP:0   MisRate:0.00%    MPKI:0.00
PC:39794     Total:5      MisBP:0   MisRate:0.00%    MPKI:0.00
PC:165c4     Total:3      MisBP:0   MisRate:0.00%    MPKI:0.00
PC:18d3c     Total:13965      MisBP:0   MisRate:0.00%    MPKI:0.00
PC:18d5a     Total:13587      MisBP:0   MisRate:0.00%    MPKI:0.00
PC:18d58     Total:13622      MisBP:0   MisRate:0.00%    MPKI:0.00
PC:18d54     Total:27322      MisBP:0   MisRate:0.00%    MPKI:0.00
PC:18d50     Total:13724      MisBP:0   MisRate:0.00%    MPKI:0.00
PC:18d4e     Total:13727      MisBP:0   MisRate:0.00%    MPKI:0.00
PC:18d4a     Total:13730      MisBP:0   MisRate:0.00%    MPKI:0.00
PC:18d48     Total:13732      MisBP:0   MisRate:0.00%    MPKI:0.00
PC:18d46     Total:13728      MisBP:0   MisRate:0.00%    MPKI:0.00
PC:18d44     Total:13740      MisBP:0   MisRate:0.00%    MPKI:0.00
PC:18d40     Total:13740      MisBP:0   MisRate:0.00%    MPKI:0.00
PC:18d3e     Total:13962      MisBP:0   MisRate:0.00%    MPKI:0.00
PC:18d5c     Total:27081      MisBP:0   MisRate:0.00%    MPKI:0.00
PC:18d3a     Total:13987      MisBP:0   MisRate:0.00%    MPKI:0.00
PC:18d38     Total:13989      MisBP:0   MisRate:0.00%    MPKI:0.00
PC:18d34     Total:14003      MisBP:0   MisRate:0.00%    MPKI:0.00
PC:18d32     Total:14010      MisBP:0   MisRate:0.00%    MPKI:0.00
PC:18d2c     Total:14030      MisBP:0   MisRate:0.00%    MPKI:0.00
PC:18d24     Total:14239      MisBP:0   MisRate:0.00%    MPKI:0.00
PC:18d1e     Total:14278      MisBP:0   MisRate:0.00%    MPKI:0.00
PC:18d1a     Total:28593      MisBP:0   MisRate:0.00%    MPKI:0.00
PC:18d0c     Total:14380      MisBP:0   MisRate:0.00%    MPKI:0.00
PC:18d08     Total:14381      MisBP:0   MisRate:0.00%    MPKI:0.00
PC:3977c     Total:6      MisBP:0   MisRate:0.00%    MPKI:0.00
PC:18d78     Total:7532      MisBP:0   MisRate:0.00%    MPKI:0.00
PC:165b6     Total:60      MisBP:0   MisRate:0.00%    MPKI:0.00
PC:39784     Total:5      MisBP:0   MisRate:0.00%    MPKI:0.00
PC:18d74     Total:7533      MisBP:0   MisRate:0.00%    MPKI:0.00
PC:165b4     Total:3      MisBP:0   MisRate:0.00%    MPKI:0.00
PC:18d72     Total:7533      MisBP:0   MisRate:0.00%    MPKI:0.00
PC:165b2     Total:3      MisBP:0   MisRate:0.00%    MPKI:0.00
PC:39780     Total:5      MisBP:0   MisRate:0.00%    MPKI:0.00
PC:18d70     Total:7550      MisBP:0   MisRate:0.00%    MPKI:0.00
PC:18d6e     Total:1740      MisBP:0   MisRate:0.00%    MPKI:0.00
PC:165ae     Total:2      MisBP:0   MisRate:0.00%    MPKI:0.00
PC:29368     Total:10      MisBP:0   MisRate:0.00%    MPKI:0.00
PC:18d6c     Total:5832      MisBP:0   MisRate:0.00%    MPKI:0.00
PC:18d6a     Total:5839      MisBP:0   MisRate:0.00%    MPKI:0.00
PC:165aa     Total:2      MisBP:0   MisRate:0.00%    MPKI:0.00
PC:39778     Total:6      MisBP:0   MisRate:0.00%    MPKI:0.00
PC:18d66     Total:13457      MisBP:0   MisRate:0.00%    MPKI:0.00
PC:165a4     Total:2      MisBP:0   MisRate:0.00%    MPKI:0.00
PC:39772     Total:6      MisBP:0   MisRate:0.00%    MPKI:0.00
PC:18d62     Total:13469      MisBP:0   MisRate:0.00%    MPKI:0.00
PC:18d60     Total:13486      MisBP:0   MisRate:0.00%    MPKI:0.00
PC:1659e     Total:2      MisBP:0   MisRate:0.00%    MPKI:0.00
PC:1409c     Total:214      MisBP:0   MisRate:0.00%    MPKI:0.00
PC:15f28     Total:36311      MisBP:0   MisRate:0.00%    MPKI:0.00
PC:15e62     Total:36760      MisBP:0   MisRate:0.00%    MPKI:0.00
PC:15178     Total:99      MisBP:0   MisRate:0.00%    MPKI:0.00
PC:29280     Total:8      MisBP:0   MisRate:0.00%    MPKI:0.00
PC:18ba0     Total:85      MisBP:0   MisRate:0.00%    MPKI:0.00
PC:163e2     Total:36537      MisBP:0   MisRate:0.00%    MPKI:0.00
PC:15ce2     Total:36264      MisBP:0   MisRate:0.00%    MPKI:0.00
PC:15438     Total:1111      MisBP:0   MisRate:0.00%    MPKI:0.00
PC:29540     Total:3332      MisBP:0   MisRate:0.00%    MPKI:0.00
PC:16920     Total:14      MisBP:0   MisRate:0.00%    MPKI:0.00
PC:190de     Total:6      MisBP:0   MisRate:0.00%    MPKI:0.00
PC:10ee6     Total:243      MisBP:0   MisRate:0.00%    MPKI:0.00
PC:29790     Total:50      MisBP:0   MisRate:0.00%    MPKI:0.00
PC:159a0     Total:35808      MisBP:0   MisRate:0.00%    MPKI:0.00
PC:15d50     Total:36376      MisBP:0   MisRate:0.00%    MPKI:0.00
PC:10ee2     Total:243      MisBP:0   MisRate:0.00%    MPKI:0.00
PC:15e5e     Total:36760      MisBP:0   MisRate:0.00%    MPKI:0.00
PC:101f8     Total:7      MisBP:0   MisRate:0.00%    MPKI:0.00
PC:15174     Total:99      MisBP:0   MisRate:0.00%    MPKI:0.00
PC:2927c     Total:9      MisBP:0   MisRate:0.00%    MPKI:0.00
PC:15d4c     Total:36376      MisBP:0   MisRate:0.00%    MPKI:0.00
PC:10ede     Total:243      MisBP:0   MisRate:0.00%    MPKI:0.00
PC:29284     Total:8      MisBP:0   MisRate:0.00%    MPKI:0.00
PC:15186     Total:85      MisBP:0   MisRate:0.00%    MPKI:0.00
PC:163f0     Total:36801      MisBP:0   MisRate:0.00%    MPKI:0.00
PC:15cf0     Total:36331      MisBP:0   MisRate:0.00%    MPKI:0.00
PC:15446     Total:35      MisBP:0   MisRate:0.00%    MPKI:0.00
PC:1692e     Total:14      MisBP:0   MisRate:0.00%    MPKI:0.00
PC:15180     Total:85      MisBP:0   MisRate:0.00%    MPKI:0.00
PC:29288     Total:8      MisBP:0   MisRate:0.00%    MPKI:0.00
PC:163ea     Total:36747      MisBP:0   MisRate:0.00%    MPKI:0.00
PC:151c0     Total:2      MisBP:0   MisRate:0.00%    MPKI:0.00
PC:1642a     Total:36776      MisBP:0   MisRate:0.00%    MPKI:0.00
PC:1517c     Total:99      MisBP:0   MisRate:0.00%    MPKI:0.00
PC:15e5a     Total:36720      MisBP:0   MisRate:0.00%    MPKI:0.00
PC:18ba4     Total:85      MisBP:0   MisRate:0.00%    MPKI:0.00
PC:163e6     Total:36498      MisBP:0   MisRate:0.00%    MPKI:0.00
PC:15ce6     Total:36265      MisBP:0   MisRate:0.00%    MPKI:0.00
PC:16924     Total:14      MisBP:0   MisRate:0.00%    MPKI:0.00
PC:190e2     Total:6      MisBP:0   MisRate:0.00%    MPKI:0.00
PC:29794     Total:50      MisBP:0   MisRate:0.00%    MPKI:0.00
PC:159a4     Total:35808      MisBP:0   MisRate:0.00%    MPKI:0.00
PC:15d54     Total:36313      MisBP:0   MisRate:0.00%    MPKI:0.00
PC:361fa     Total:99      MisBP:0   MisRate:0.00%    MPKI:0.00
PC:1302c     Total:1      MisBP:0   MisRate:0.00%    MPKI:0.00
PC:1507e     Total:1548526      MisBP:0   MisRate:0.00%    MPKI:0.00
PC:15d44     Total:36377      MisBP:0   MisRate:0.00%    MPKI:0.00
PC:361ea     Total:115      MisBP:0   MisRate:0.00%    MPKI:0.00
PC:1301c     Total:1      MisBP:0   MisRate:0.00%    MPKI:0.00
PC:15e52     Total:36700      MisBP:0   MisRate:0.00%    MPKI:0.00
PC:18c8c     Total:13512      MisBP:0   MisRate:0.00%    MPKI:0.00
PC:1dc08     Total:2      MisBP:0   MisRate:0.00%    MPKI:0.00
PC:13364     Total:2      MisBP:0   MisRate:0.00%    MPKI:0.00
PC:15b22     Total:36622      MisBP:0   MisRate:0.00%    MPKI:0.00
PC:162f8     Total:36581      MisBP:0   MisRate:0.00%    MPKI:0.00
PC:15082     Total:1496578      MisBP:0   MisRate:0.00%    MPKI:0.00
PC:162ec     Total:36586      MisBP:0   MisRate:0.00%    MPKI:0.00
PC:15e1a     Total:36859      MisBP:0   MisRate:0.00%    MPKI:0.00
PC:162e8     Total:36530      MisBP:0   MisRate:0.00%    MPKI:0.00
PC:159fc     Total:36179      MisBP:0   MisRate:0.00%    MPKI:0.00
PC:15078     Total:1549523      MisBP:0   MisRate:0.00%    MPKI:0.00
PC:162e2     Total:36534      MisBP:0   MisRate:0.00%    MPKI:0.00
PC:15be2     Total:36860      MisBP:0   MisRate:0.00%    MPKI:0.00
PC:16820     Total:3      MisBP:0   MisRate:0.00%    MPKI:0.00
PC:18fde     Total:13      MisBP:0   MisRate:0.00%    MPKI:0.00
PC:29690     Total:242      MisBP:0   MisRate:0.00%    MPKI:0.00
PC:15588     Total:35767      MisBP:0   MisRate:0.00%    MPKI:0.00
PC:130e2     Total:968442      MisBP:0   MisRate:0.00%    MPKI:0.00
PC:29274     Total:23      MisBP:0   MisRate:0.00%    MPKI:0.00
PC:15170     Total:100      MisBP:0   MisRate:0.00%    MPKI:0.00
PC:29278     Total:10      MisBP:0   MisRate:0.00%    MPKI:0.00
PC:163da     Total:36481      MisBP:0   MisRate:0.00%    MPKI:0.00
PC:15d18     Total:36372      MisBP:0   MisRate:0.00%    MPKI:0.00
PC:361be     Total:241      MisBP:0   MisRate:0.00%    MPKI:0.00
PC:12ff0     Total:14      MisBP:0   MisRate:0.00%    MPKI:0.00
PC:15d48     Total:36379      MisBP:0   MisRate:0.00%    MPKI:0.00
PC:361ee     Total:114      MisBP:0   MisRate:0.00%    MPKI:0.00
PC:13020     Total:1      MisBP:0   MisRate:0.00%    MPKI:0.00
PC:15e56     Total:36759      MisBP:0   MisRate:0.00%    MPKI:0.00
PC:1516c     Total:100      MisBP:0   MisRate:0.00%    MPKI:0.00
PC:159b0     Total:35914      MisBP:0   MisRate:0.00%    MPKI:0.00
PC:18b94     Total:80      MisBP:0   MisRate:0.00%    MPKI:0.00
PC:163d6     Total:36482      MisBP:0   MisRate:0.00%    MPKI:0.00
PC:159e2     Total:36047      MisBP:0   MisRate:0.00%    MPKI:0.00
PC:15d14     Total:36337      MisBP:0   MisRate:0.00%    MPKI:0.00
PC:361ba     Total:1077      MisBP:0   MisRate:0.00%    MPKI:0.00
PC:12fec     Total:14      MisBP:0   MisRate:0.00%    MPKI:0.00
PC:361b2     Total:3997      MisBP:0   MisRate:0.00%    MPKI:0.00
PC:12fe4     Total:14      MisBP:0   MisRate:0.00%    MPKI:0.00
PC:10e9e     Total:217      MisBP:0   MisRate:0.00%    MPKI:0.00
PC:15ee0     Total:36358      MisBP:0   MisRate:0.00%    MPKI:0.00
PC:15a3a     Total:36311      MisBP:0   MisRate:0.00%    MPKI:0.00
PC:10154     Total:319      MisBP:0   MisRate:0.00%    MPKI:0.00
PC:2929e     Total:8      MisBP:0   MisRate:0.00%    MPKI:0.00
PC:16400     Total:36773      MisBP:0   MisRate:0.00%    MPKI:0.00
PC:15d00     Total:36336      MisBP:0   MisRate:0.00%    MPKI:0.00
PC:29246     Total:32      MisBP:0   MisRate:0.00%    MPKI:0.00
PC:1513e     Total:122      MisBP:0   MisRate:0.00%    MPKI:0.00
PC:15456     Total:36293      MisBP:0   MisRate:0.00%    MPKI:0.00
PC:15cfc     Total:36385      MisBP:0   MisRate:0.00%    MPKI:0.00
PC:29242     Total:37      MisBP:0   MisRate:0.00%    MPKI:0.00
PC:1513a     Total:122      MisBP:0   MisRate:0.00%    MPKI:0.00
PC:15452     Total:36293      MisBP:0   MisRate:0.00%    MPKI:0.00
PC:159c0     Total:35942      MisBP:0   MisRate:0.00%    MPKI:0.00
PC:15190     Total:84      MisBP:0   MisRate:0.00%    MPKI:0.00
PC:29298     Total:8      MisBP:0   MisRate:0.00%    MPKI:0.00
PC:163fa     Total:36929      MisBP:0   MisRate:0.00%    MPKI:0.00
PC:15a7c     Total:36478      MisBP:0   MisRate:0.00%    MPKI:0.00
PC:151d2     Total:2      MisBP:0   MisRate:0.00%    MPKI:0.00
PC:10190     Total:31      MisBP:0   MisRate:0.00%    MPKI:0.00
PC:19138     Total:6      MisBP:0   MisRate:0.00%    MPKI:0.00
PC:159fa     Total:36142      MisBP:0   MisRate:0.00%    MPKI:0.00
PC:15a08     Total:36218      MisBP:0   MisRate:0.00%    MPKI:0.00
PC:15d3a     Total:36337      MisBP:0   MisRate:0.00%    MPKI:0.00
PC:15e82     Total:36380      MisBP:0   MisRate:0.00%    MPKI:0.00
PC:151dc     Total:18      MisBP:0   MisRate:0.00%    MPKI:0.00
PC:292e4     Total:90      MisBP:0   MisRate:0.00%    MPKI:0.00
PC:18c04     Total:86      MisBP:0   MisRate:0.00%    MPKI:0.00
PC:16446     Total:36664      MisBP:0   MisRate:0.00%    MPKI:0.00
PC:15d46     Total:36379      MisBP:0   MisRate:0.00%    MPKI:0.00
PC:16984     Total:22      MisBP:0   MisRate:0.00%    MPKI:0.00
PC:19142     Total:6      MisBP:0   MisRate:0.00%    MPKI:0.00
PC:15a04     Total:36169      MisBP:0   MisRate:0.00%    MPKI:0.00
PC:15a42     Total:36303      MisBP:0   MisRate:0.00%    MPKI:0.00
PC:15d74     Total:36486      MisBP:0   MisRate:0.00%    MPKI:0.00
PC:3621a     Total:16      MisBP:0   MisRate:0.00%    MPKI:0.00
PC:361e0     Total:174      MisBP:0   MisRate:0.00%    MPKI:0.00
PC:15198     Total:79      MisBP:0   MisRate:0.00%    MPKI:0.00
PC:292a0     Total:8      MisBP:0   MisRate:0.00%    MPKI:0.00
PC:15d02     Total:36346      MisBP:0   MisRate:0.00%    MPKI:0.00
PC:29248     Total:32      MisBP:0   MisRate:0.00%    MPKI:0.00
PC:15140     Total:97      MisBP:0   MisRate:0.00%    MPKI:0.00
PC:15458     Total:36293      MisBP:0   MisRate:0.00%    MPKI:0.00
PC:29560     Total:3331      MisBP:0   MisRate:0.00%    MPKI:0.00
PC:16940     Total:2334      MisBP:0   MisRate:0.00%    MPKI:0.00
PC:190fe     Total:6      MisBP:0   MisRate:0.00%    MPKI:0.00
PC:140bc     Total:214      MisBP:0   MisRate:0.00%    MPKI:0.00
PC:10ef6     Total:221      MisBP:0   MisRate:0.00%    MPKI:0.00
PC:18bf4     Total:15493      MisBP:0   MisRate:0.00%    MPKI:0.00
PC:16436     Total:36803      MisBP:0   MisRate:0.00%    MPKI:0.00
PC:15d36     Total:36350      MisBP:0   MisRate:0.00%    MPKI:0.00
PC:141b6     Total:8      MisBP:0   MisRate:0.00%    MPKI:0.00
PC:19132     Total:6      MisBP:0   MisRate:0.00%    MPKI:0.00
PC:297e4     Total:74      MisBP:0   MisRate:0.00%    MPKI:0.00
PC:156dc     Total:36753      MisBP:0   MisRate:0.00%    MPKI:0.00
PC:159f4     Total:36090      MisBP:0   MisRate:0.00%    MPKI:0.00
PC:15a32     Total:36311      MisBP:0   MisRate:0.00%    MPKI:0.00
PC:15d64     Total:36368      MisBP:0   MisRate:0.00%    MPKI:0.00
PC:3620a     Total:16      MisBP:0   MisRate:0.00%    MPKI:0.00
PC:292d4     Total:4      MisBP:0   MisRate:0.00%    MPKI:0.00
PC:15f38     Total:36487      MisBP:0   MisRate:0.00%    MPKI:0.00
PC:15e72     Total:36691      MisBP:0   MisRate:0.00%    MPKI:0.00
PC:15188     Total:84      MisBP:0   MisRate:0.00%    MPKI:0.00
PC:29290     Total:8      MisBP:0   MisRate:0.00%    MPKI:0.00
PC:163f2     Total:36800      MisBP:0   MisRate:0.00%    MPKI:0.00
PC:15cf2     Total:36333      MisBP:0   MisRate:0.00%    MPKI:0.00
PC:16930     Total:14      MisBP:0   MisRate:0.00%    MPKI:0.00
PC:190ee     Total:6      MisBP:0   MisRate:0.00%    MPKI:0.00
PC:140ac     Total:214      MisBP:0   MisRate:0.00%    MPKI:0.00
PC:15698     Total:36629      MisBP:0   MisRate:0.00%    MPKI:0.00
PC:3620e     Total:16      MisBP:0   MisRate:0.00%    MPKI:0.00
PC:13012     Total:2      MisBP:0   MisRate:0.00%    MPKI:0.00
PC:15e48     Total:36742      MisBP:0   MisRate:0.00%    MPKI:0.00
PC:15cf8     Total:36333      MisBP:0   MisRate:0.00%    MPKI:0.00
PC:1544e     Total:36293      MisBP:0   MisRate:0.00%    MPKI:0.00
PC:14178     Total:116      MisBP:0   MisRate:0.00%    MPKI:0.00
PC:190f4     Total:6      MisBP:0   MisRate:0.00%    MPKI:0.00
PC:140b2     Total:214      MisBP:0   MisRate:0.00%    MPKI:0.00
PC:159b6     Total:35967      MisBP:0   MisRate:0.00%    MPKI:0.00
PC:15a36     Total:36311      MisBP:0   MisRate:0.00%    MPKI:0.00
PC:19174     Total:6      MisBP:0   MisRate:0.00%    MPKI:0.00
PC:15d68     Total:36486      MisBP:0   MisRate:0.00%    MPKI:0.00
PC:158a0     Total:36566      MisBP:0   MisRate:0.00%    MPKI:0.00
PC:10efa     Total:221      MisBP:0   MisRate:0.00%    MPKI:0.00
PC:15e76     Total:36680      MisBP:0   MisRate:0.00%    MPKI:0.00
PC:1518c     Total:84      MisBP:0   MisRate:0.00%    MPKI:0.00
PC:29294     Total:8      MisBP:0   MisRate:0.00%    MPKI:0.00
PC:15cf6     Total:36333      MisBP:0   MisRate:0.00%    MPKI:0.00
PC:16934     Total:14      MisBP:0   MisRate:0.00%    MPKI:0.00
PC:190f2     Total:6      MisBP:0   MisRate:0.00%    MPKI:0.00
PC:140b0     Total:214      MisBP:0   MisRate:0.00%    MPKI:0.00
PC:159b4     Total:35914      MisBP:0   MisRate:0.00%    MPKI:0.00
PC:151cc     Total:2      MisBP:0   MisRate:0.00%    MPKI:0.00
PC:159aa     Total:35917      MisBP:0   MisRate:0.00%    MPKI:0.00
PC:1273a     Total:3      MisBP:0   MisRate:0.00%    MPKI:0.00
PC:1592e     Total:36481      MisBP:0   MisRate:0.00%    MPKI:0.00
PC:1317c     Total:636      MisBP:0   MisRate:0.00%    MPKI:0.00
PC:1593a     Total:35862      MisBP:0   MisRate:0.00%    MPKI:0.00
PC:15090     Total:136465      MisBP:0   MisRate:0.00%    MPKI:0.00
PC:162fa     Total:36575      MisBP:0   MisRate:0.00%    MPKI:0.00
PC:15104     Total:328720      MisBP:0   MisRate:0.00%    MPKI:0.00
PC:12d80     Total:232855      MisBP:0   MisRate:0.00%    MPKI:0.00
PC:1553e     Total:1      MisBP:0   MisRate:0.00%    MPKI:0.00
PC:12908     Total:1      MisBP:0   MisRate:0.00%    MPKI:0.00
PC:150c6     Total:230044      MisBP:0   MisRate:0.00%    MPKI:0.00
PC:168ae     Total:1      MisBP:0   MisRate:0.00%    MPKI:0.00
PC:190e8     Total:6      MisBP:0   MisRate:0.00%    MPKI:0.00
PC:140a6     Total:214      MisBP:0   MisRate:0.00%    MPKI:0.00
PC:10184     Total:124      MisBP:0   MisRate:0.00%    MPKI:0.00
PC:292ce     Total:6      MisBP:0   MisRate:0.00%    MPKI:0.00
PC:15100     Total:328737      MisBP:0   MisRate:0.00%    MPKI:0.00
PC:18b28     Total:718      MisBP:0   MisRate:0.00%    MPKI:0.00
PC:1636a     Total:36196      MisBP:0   MisRate:0.00%    MPKI:0.00
PC:1508a     Total:1492466      MisBP:0   MisRate:0.00%    MPKI:0.00
PC:162f4     Total:36583      MisBP:0   MisRate:0.00%    MPKI:0.00
PC:131b0     Total:1      MisBP:0   MisRate:0.00%    MPKI:0.00
PC:13138     Total:17      MisBP:0   MisRate:0.00%    MPKI:0.00
PC:150d4     Total:229938      MisBP:0   MisRate:0.00%    MPKI:0.00
PC:1633e     Total:36282      MisBP:0   MisRate:0.00%    MPKI:0.00
PC:1597a     Total:35838      MisBP:0   MisRate:0.00%    MPKI:0.00
PC:150d0     Total:229952      MisBP:0   MisRate:0.00%    MPKI:0.00
PC:12910     Total:1      MisBP:0   MisRate:0.00%    MPKI:0.00
PC:150ce     Total:229955      MisBP:0   MisRate:0.00%    MPKI:0.00
PC:16338     Total:36283      MisBP:0   MisRate:0.00%    MPKI:0.00
PC:15c38     Total:37093      MisBP:0   MisRate:0.00%    MPKI:0.00
PC:140b8     Total:214      MisBP:0   MisRate:0.00%    MPKI:0.00
PC:16876     Total:94      MisBP:0   MisRate:0.00%    MPKI:0.00
PC:19034     Total:11      MisBP:0   MisRate:0.00%    MPKI:0.00
PC:1596e     Total:35842      MisBP:0   MisRate:0.00%    MPKI:0.00
PC:158f6     Total:36444      MisBP:0   MisRate:0.00%    MPKI:0.00
PC:29764     Total:237      MisBP:0   MisRate:0.00%    MPKI:0.00
PC:1565c     Total:36452      MisBP:0   MisRate:0.00%    MPKI:0.00
PC:15974     Total:35840      MisBP:0   MisRate:0.00%    MPKI:0.00
PC:1290c     Total:1      MisBP:0   MisRate:0.00%    MPKI:0.00
PC:150ca     Total:230043      MisBP:0   MisRate:0.00%    MPKI:0.00
PC:16334     Total:36283      MisBP:0   MisRate:0.00%    MPKI:0.00
PC:15106     Total:328491      MisBP:0   MisRate:0.00%    MPKI:0.00
PC:16370     Total:36193      MisBP:0   MisRate:0.00%    MPKI:0.00
PC:153c6     Total:54      MisBP:0   MisRate:0.00%    MPKI:0.00
PC:16326     Total:36356      MisBP:0   MisRate:0.00%    MPKI:0.00
PC:1293a     Total:1      MisBP:0   MisRate:0.00%    MPKI:0.00
PC:150f8     Total:339036      MisBP:0   MisRate:0.00%    MPKI:0.00
PC:16362     Total:36335      MisBP:0   MisRate:0.00%    MPKI:0.00
PC:15c62     Total:36800      MisBP:0   MisRate:0.00%    MPKI:0.00
PC:1905e     Total:8      MisBP:0   MisRate:0.00%    MPKI:0.00
PC:29710     Total:241      MisBP:0   MisRate:0.00%    MPKI:0.00
PC:15608     Total:36041      MisBP:0   MisRate:0.00%    MPKI:0.00
PC:13162     Total:231      MisBP:0   MisRate:0.00%    MPKI:0.00
PC:15920     Total:36428      MisBP:0   MisRate:0.00%    MPKI:0.00
PC:15966     Total:35843      MisBP:0   MisRate:0.00%    MPKI:0.00
PC:150bc     Total:237576      MisBP:0   MisRate:0.00%    MPKI:0.00
PC:1632a     Total:36415      MisBP:0   MisRate:0.00%    MPKI:0.00
PC:12938     Total:1      MisBP:0   MisRate:0.00%    MPKI:0.00
PC:150f6     Total:339066      MisBP:0   MisRate:0.00%    MPKI:0.00
PC:15530     Total:1      MisBP:0   MisRate:0.00%    MPKI:0.00
PC:29638     Total:3317      MisBP:0   MisRate:0.00%    MPKI:0.00
PC:15c60     Total:36866      MisBP:0   MisRate:0.00%    MPKI:0.00
PC:153b6     Total:61      MisBP:0   MisRate:0.00%    MPKI:0.00
PC:1689e     Total:5      MisBP:0   MisRate:0.00%    MPKI:0.00
PC:1905c     Total:8      MisBP:0   MisRate:0.00%    MPKI:0.00
PC:13160     Total:1      MisBP:0   MisRate:0.00%    MPKI:0.00
PC:1591e     Total:36435      MisBP:0   MisRate:0.00%    MPKI:0.00
PC:162f2     Total:36583      MisBP:0   MisRate:0.00%    MPKI:0.00
PC:12906     Total:1      MisBP:0   MisRate:0.00%    MPKI:0.00
PC:150c4     Total:230056      MisBP:0   MisRate:0.00%    MPKI:0.00
PC:1632e     Total:36285      MisBP:0   MisRate:0.00%    MPKI:0.00
PC:29798     Total:50      MisBP:0   MisRate:0.00%    MPKI:0.00
PC:15690     Total:36645      MisBP:0   MisRate:0.00%    MPKI:0.00
PC:159a8     Total:35917      MisBP:0   MisRate:0.00%    MPKI:0.00
PC:150fe     Total:337312      MisBP:0   MisRate:0.00%    MPKI:0.00
PC:15c68     Total:36815      MisBP:0   MisRate:0.00%    MPKI:0.00
PC:168a6     Total:5      MisBP:0   MisRate:0.00%    MPKI:0.00
PC:19064     Total:8      MisBP:0   MisRate:0.00%    MPKI:0.00
PC:15088     Total:1494273      MisBP:0   MisRate:0.00%    MPKI:0.00
PC:292a2     Total:8      MisBP:0   MisRate:0.00%    MPKI:0.00
PC:15086     Total:1496237      MisBP:0   MisRate:0.00%    MPKI:0.00
PC:10ece     Total:4      MisBP:0   MisRate:0.00%    MPKI:0.00
PC:15f10     Total:36387      MisBP:0   MisRate:0.00%    MPKI:0.00
PC:15e4a     Total:36730      MisBP:0   MisRate:0.00%    MPKI:0.00
PC:15160     Total:89      MisBP:0   MisRate:0.00%    MPKI:0.00
PC:29268     Total:12      MisBP:0   MisRate:0.00%    MPKI:0.00
PC:18b88     Total:71      MisBP:0   MisRate:0.00%    MPKI:0.00
PC:163ca     Total:36385      MisBP:0   MisRate:0.00%    MPKI:0.00
PC:1596a     Total:35843      MisBP:0   MisRate:0.00%    MPKI:0.00
PC:150c0     Total:230063      MisBP:0   MisRate:0.00%    MPKI:0.00
PC:1695e     Total:1166      MisBP:0   MisRate:0.00%    MPKI:0.00
PC:15e2c     Total:36819      MisBP:0   MisRate:0.00%    MPKI:0.00
PC:15cdc     Total:36325      MisBP:0   MisRate:0.00%    MPKI:0.00
PC:15432     Total:1087      MisBP:0   MisRate:0.00%    MPKI:0.00
PC:190d8     Total:6      MisBP:0   MisRate:0.00%    MPKI:0.00
PC:14096     Total:214      MisBP:0   MisRate:0.00%    MPKI:0.00
PC:1599a     Total:35808      MisBP:0   MisRate:0.00%    MPKI:0.00
PC:151b6     Total:1      MisBP:0   MisRate:0.00%    MPKI:0.00
PC:10174     Total:34      MisBP:0   MisRate:0.00%    MPKI:0.00
PC:292be     Total:7      MisBP:0   MisRate:0.00%    MPKI:0.00
PC:16420     Total:36794      MisBP:0   MisRate:0.00%    MPKI:0.00
PC:15476     Total:35728      MisBP:0   MisRate:0.00%    MPKI:0.00
PC:12ff6     Total:16      MisBP:0   MisRate:0.00%    MPKI:0.00
PC:1911c     Total:6      MisBP:0   MisRate:0.00%    MPKI:0.00
PC:159de     Total:36047      MisBP:0   MisRate:0.00%    MPKI:0.00
PC:150fa     Total:337314      MisBP:0   MisRate:0.00%    MPKI:0.00
PC:16364     Total:36335      MisBP:0   MisRate:0.00%    MPKI:0.00
PC:15534     Total:1      MisBP:0   MisRate:0.00%    MPKI:0.00
PC:2963c     Total:3317      MisBP:0   MisRate:0.00%    MPKI:0.00
PC:29784     Total:237      MisBP:0   MisRate:0.00%    MPKI:0.00
PC:1567c     Total:36613      MisBP:0   MisRate:0.00%    MPKI:0.00
PC:15994     Total:35814      MisBP:0   MisRate:0.00%    MPKI:0.00
PC:1292c     Total:1      MisBP:0   MisRate:0.00%    MPKI:0.00
PC:15436     Total:1115      MisBP:0   MisRate:0.00%    MPKI:0.00
PC:15074     Total:1550436      MisBP:0   MisRate:0.00%    MPKI:0.00
PC:162de     Total:36519      MisBP:0   MisRate:0.00%    MPKI:0.00
PC:15d22     Total:36371      MisBP:0   MisRate:0.00%    MPKI:0.00
PC:361c8     Total:238      MisBP:0   MisRate:0.00%    MPKI:0.00
PC:12ffa     Total:16      MisBP:0   MisRate:0.00%    MPKI:0.00
PC:15e30     Total:36817      MisBP:0   MisRate:0.00%    MPKI:0.00
PC:361f8     Total:100      MisBP:0   MisRate:0.00%    MPKI:0.00
PC:1302a     Total:1      MisBP:0   MisRate:0.00%    MPKI:0.00
PC:15176     Total:99      MisBP:0   MisRate:0.00%    MPKI:0.00
PC:163e0     Total:36481      MisBP:0   MisRate:0.00%    MPKI:0.00
PC:15ce0     Total:36276      MisBP:0   MisRate:0.00%    MPKI:0.00
PC:150ea     Total:15442356      MisBP:0   MisRate:0.00%    MPKI:0.00
PC:1599e     Total:35808      MisBP:0   MisRate:0.00%    MPKI:0.00
PC:151ba     Total:1      MisBP:0   MisRate:0.00%    MPKI:0.00
PC:10178     Total:34      MisBP:0   MisRate:0.00%    MPKI:0.00
PC:292c2     Total:6      MisBP:0   MisRate:0.00%    MPKI:0.00
PC:18be2     Total:93465      MisBP:0   MisRate:0.00%    MPKI:0.00
PC:1dc24     Total:11      MisBP:0   MisRate:0.00%    MPKI:0.00
PC:16424     Total:36777      MisBP:0   MisRate:0.00%    MPKI:0.00
PC:297dc     Total:222      MisBP:0   MisRate:0.00%    MPKI:0.00
PC:159ec     Total:36046      MisBP:0   MisRate:0.00%    MPKI:0.00
PC:361c4     Total:239      MisBP:0   MisRate:0.00%    MPKI:0.00
PC:15984     Total:35814      MisBP:0   MisRate:0.00%    MPKI:0.00
PC:12920     Total:1      MisBP:0   MisRate:0.00%    MPKI:0.00
PC:150de     Total:472644      MisBP:0   MisRate:0.00%    MPKI:0.00
PC:16348     Total:36272      MisBP:0   MisRate:0.00%    MPKI:0.00
PC:15518     Total:100926      MisBP:0   MisRate:0.00%    MPKI:0.00
PC:29620     Total:3317      MisBP:0   MisRate:0.00%    MPKI:0.00
PC:1291e     Total:1      MisBP:0   MisRate:0.00%    MPKI:0.00
PC:150dc     Total:473170      MisBP:0   MisRate:0.00%    MPKI:0.00
PC:16346     Total:36272      MisBP:0   MisRate:0.00%    MPKI:0.00
PC:15516     Total:100937      MisBP:0   MisRate:0.00%    MPKI:0.00
PC:29774     Total:237      MisBP:0   MisRate:0.00%    MPKI:0.00
PC:1566c     Total:36514      MisBP:0   MisRate:0.00%    MPKI:0.00
PC:15988     Total:35814      MisBP:0   MisRate:0.00%    MPKI:0.00
PC:150da     Total:143810      MisBP:0   MisRate:0.00%    MPKI:0.00
PC:16344     Total:36219      MisBP:0   MisRate:0.00%    MPKI:0.00
PC:15982     Total:35814      MisBP:0   MisRate:0.00%    MPKI:0.00
PC:1291a     Total:2      MisBP:0   MisRate:0.00%    MPKI:0.00
PC:1015c     Total:36      MisBP:0   MisRate:0.00%    MPKI:0.00
PC:1519e     Total:79      MisBP:0   MisRate:0.00%    MPKI:0.00
PC:292a6     Total:8      MisBP:0   MisRate:0.00%    MPKI:0.00
PC:1597e     Total:35814      MisBP:0   MisRate:0.00%    MPKI:0.00
PC:12916     Total:1      MisBP:0   MisRate:0.00%    MPKI:0.00
PC:1519a     Total:79      MisBP:0   MisRate:0.00%    MPKI:0.00
PC:15520     Total:1      MisBP:0   MisRate:0.00%    MPKI:0.00
PC:16354     Total:36331      MisBP:0   MisRate:0.00%    MPKI:0.00
PC:12d66     Total:56224      MisBP:0   MisRate:0.00%    MPKI:0.00
PC:15524     Total:1      MisBP:0   MisRate:0.00%    MPKI:0.00
PC:2962c     Total:3317      MisBP:0   MisRate:0.00%    MPKI:0.00
PC:29780     Total:237      MisBP:0   MisRate:0.00%    MPKI:0.00
PC:15678     Total:36510      MisBP:0   MisRate:0.00%    MPKI:0.00
PC:15990     Total:35814      MisBP:0   MisRate:0.00%    MPKI:0.00
PC:12928     Total:1      MisBP:0   MisRate:0.00%    MPKI:0.00
PC:150e6     Total:426777      MisBP:0   MisRate:0.00%    MPKI:0.00
PC:16350     Total:36344      MisBP:0   MisRate:0.00%    MPKI:0.00
PC:12d62     Total:56224      MisBP:0   MisRate:0.00%    MPKI:0.00
PC:14182     Total:2      MisBP:0   MisRate:0.00%    MPKI:0.00
PC:29628     Total:3317      MisBP:0   MisRate:0.00%    MPKI:0.00
PC:12924     Total:1      MisBP:0   MisRate:0.00%    MPKI:0.00
PC:1634c     Total:36272      MisBP:0   MisRate:0.00%    MPKI:0.00
PC:1551c     Total:100921      MisBP:0   MisRate:0.00%    MPKI:0.00
PC:29624     Total:3317      MisBP:0   MisRate:0.00%    MPKI:0.00
PC:1598a     Total:35814      MisBP:0   MisRate:0.00%    MPKI:0.00
PC:150e0     Total:472586      MisBP:0   MisRate:0.00%    MPKI:0.00
PC:1634a     Total:36272      MisBP:0   MisRate:0.00%    MPKI:0.00
PC:29778     Total:237      MisBP:0   MisRate:0.00%    MPKI:0.00
PC:15670     Total:36510      MisBP:0   MisRate:0.00%    MPKI:0.00
PC:16464     Total:36478      MisBP:0   MisRate:0.00%    MPKI:0.00
PC:1648a     Total:36339      MisBP:0   MisRate:0.00%    MPKI:0.00
PC:15aba     Total:36225      MisBP:0   MisRate:0.00%    MPKI:0.00
PC:15210     Total:5      MisBP:0   MisRate:0.00%    MPKI:0.00
PC:18c38     Total:15363      MisBP:0   MisRate:0.00%    MPKI:0.00
PC:1647a     Total:36440      MisBP:0   MisRate:0.00%    MPKI:0.00
PC:15aa8     Total:36277      MisBP:0   MisRate:0.00%    MPKI:0.00
PC:15aa4     Total:36237      MisBP:0   MisRate:0.00%    MPKI:0.00
PC:191e2     Total:5      MisBP:0   MisRate:0.00%    MPKI:0.00
PC:141a0     Total:7      MisBP:0   MisRate:0.00%    MPKI:0.00
PC:151fa     Total:2      MisBP:0   MisRate:0.00%    MPKI:0.00
PC:101b8     Total:74      MisBP:0   MisRate:0.00%    MPKI:0.00
PC:18c48     Total:600      MisBP:0   MisRate:0.00%    MPKI:0.00
PC:15a9e     Total:36273      MisBP:0   MisRate:0.00%    MPKI:0.00
PC:151f4     Total:6      MisBP:0   MisRate:0.00%    MPKI:0.00
PC:18c1c     Total:15711      MisBP:0   MisRate:0.00%    MPKI:0.00
PC:1645e     Total:36511      MisBP:0   MisRate:0.00%    MPKI:0.00
PC:18c18     Total:83      MisBP:0   MisRate:0.00%    MPKI:0.00
PC:1645a     Total:36519      MisBP:0   MisRate:0.00%    MPKI:0.00
PC:15a8c     Total:36367      MisBP:0   MisRate:0.00%    MPKI:0.00
PC:151e2     Total:3848      MisBP:0   MisRate:0.00%    MPKI:0.00
PC:101a0     Total:27      MisBP:0   MisRate:0.00%    MPKI:0.00
PC:18c0a     Total:86      MisBP:0   MisRate:0.00%    MPKI:0.00
PC:141cc     Total:5      MisBP:0   MisRate:0.00%    MPKI:0.00
PC:101f0     Total:7      MisBP:0   MisRate:0.00%    MPKI:0.00
PC:16498     Total:36413      MisBP:0   MisRate:0.00%    MPKI:0.00
PC:18c52     Total:58835      MisBP:0   MisRate:0.00%    MPKI:0.00
PC:16494     Total:36407      MisBP:0   MisRate:0.00%    MPKI:0.00
PC:15ad2     Total:36158      MisBP:0   MisRate:0.00%    MPKI:0.00
PC:15228     Total:5      MisBP:0   MisRate:0.00%    MPKI:0.00
PC:18c50     Total:58853      MisBP:0   MisRate:0.00%    MPKI:0.00
PC:16492     Total:36477      MisBP:0   MisRate:0.00%    MPKI:0.00
PC:15a50     Total:36303      MisBP:0   MisRate:0.00%    MPKI:0.00
PC:15ad0     Total:36211      MisBP:0   MisRate:0.00%    MPKI:0.00
PC:1920e     Total:7      MisBP:0   MisRate:0.00%    MPKI:0.00
PC:1644c     Total:36634      MisBP:0   MisRate:0.00%    MPKI:0.00
PC:15226     Total:5      MisBP:0   MisRate:0.00%    MPKI:0.00
PC:101e4     Total:7      MisBP:0   MisRate:0.00%    MPKI:0.00
PC:16490     Total:36481      MisBP:0   MisRate:0.00%    MPKI:0.00
PC:15ace     Total:36202      MisBP:0   MisRate:0.00%    MPKI:0.00
PC:15224     Total:5      MisBP:0   MisRate:0.00%    MPKI:0.00
PC:18c4c     Total:600      MisBP:0   MisRate:0.00%    MPKI:0.00
PC:1648e     Total:36385      MisBP:0   MisRate:0.00%    MPKI:0.00
PC:15aca     Total:36202      MisBP:0   MisRate:0.00%    MPKI:0.00
PC:19208     Total:7      MisBP:0   MisRate:0.00%    MPKI:0.00
PC:15220     Total:5      MisBP:0   MisRate:0.00%    MPKI:0.00
PC:18c40     Total:600      MisBP:0   MisRate:0.00%    MPKI:0.00
PC:19182     Total:6      MisBP:0   MisRate:0.00%    MPKI:0.00
PC:15a44     Total:36303      MisBP:0   MisRate:0.00%    MPKI:0.00
PC:15a80     Total:36367      MisBP:0   MisRate:0.00%    MPKI:0.00
PC:18bfe     Total:86      MisBP:0   MisRate:0.00%    MPKI:0.00
PC:16440     Total:36670      MisBP:0   MisRate:0.00%    MPKI:0.00
PC:15d40     Total:36329      MisBP:0   MisRate:0.00%    MPKI:0.00
PC:141c0     Total:5      MisBP:0   MisRate:0.00%    MPKI:0.00
PC:1913c     Total:6      MisBP:0   MisRate:0.00%    MPKI:0.00
PC:159fe     Total:36179      MisBP:0   MisRate:0.00%    MPKI:0.00
PC:15ac2     Total:36143      MisBP:0   MisRate:0.00%    MPKI:0.00
PC:15218     Total:5      MisBP:0   MisRate:0.00%    MPKI:0.00
PC:16486     Total:36340      MisBP:0   MisRate:0.00%    MPKI:0.00
PC:16482     Total:36340      MisBP:0   MisRate:0.00%    MPKI:0.00
PC:1917e     Total:6      MisBP:0   MisRate:0.00%    MPKI:0.00
PC:15a40     Total:36303      MisBP:0   MisRate:0.00%    MPKI:0.00
PC:36226     Total:16      MisBP:0   MisRate:0.00%    MPKI:0.00
PC:15e8e     Total:36378      MisBP:0   MisRate:0.00%    MPKI:0.00
PC:15a7e     Total:36478      MisBP:0   MisRate:0.00%    MPKI:0.00
PC:191bc     Total:6      MisBP:0   MisRate:0.00%    MPKI:0.00
PC:151d4     Total:2      MisBP:0   MisRate:0.00%    MPKI:0.00
PC:18bfc     Total:90      MisBP:0   MisRate:0.00%    MPKI:0.00
PC:1643e     Total:36805      MisBP:0   MisRate:0.00%    MPKI:0.00
PC:15a00     Total:36169      MisBP:0   MisRate:0.00%    MPKI:0.00
PC:19148     Total:6      MisBP:0   MisRate:0.00%    MPKI:0.00
PC:15a0a     Total:36218      MisBP:0   MisRate:0.00%    MPKI:0.00
PC:15a88     Total:36367      MisBP:0   MisRate:0.00%    MPKI:0.00
PC:18c06     Total:86      MisBP:0   MisRate:0.00%    MPKI:0.00
PC:16448     Total:36654      MisBP:0   MisRate:0.00%    MPKI:0.00
PC:141c8     Total:5      MisBP:0   MisRate:0.00%    MPKI:0.00
PC:19144     Total:6      MisBP:0   MisRate:0.00%    MPKI:0.00
PC:151d8     Total:2      MisBP:0   MisRate:0.00%    MPKI:0.00
PC:16442     Total:36667      MisBP:0   MisRate:0.00%    MPKI:0.00
PC:16980     Total:22      MisBP:0   MisRate:0.00%    MPKI:0.00
PC:1913e     Total:6      MisBP:0   MisRate:0.00%    MPKI:0.00
PC:15232     Total:5      MisBP:0   MisRate:0.00%    MPKI:0.00
PC:15a78     Total:36419      MisBP:0   MisRate:0.00%    MPKI:0.00
PC:18bf6     Total:15479      MisBP:0   MisRate:0.00%    MPKI:0.00
PC:16438     Total:36788      MisBP:0   MisRate:0.00%    MPKI:0.00
PC:16976     Total:1157      MisBP:0   MisRate:0.00%    MPKI:0.00
PC:19134     Total:6      MisBP:0   MisRate:0.00%    MPKI:0.00
PC:15a84     Total:36367      MisBP:0   MisRate:0.00%    MPKI:0.00
PC:15ac6     Total:36202      MisBP:0   MisRate:0.00%    MPKI:0.00
PC:19204     Total:7      MisBP:0   MisRate:0.00%    MPKI:0.00
PC:1521c     Total:5      MisBP:0   MisRate:0.00%    MPKI:0.00
PC:18c44     Total:600      MisBP:0   MisRate:0.00%    MPKI:0.00
PC:191b8     Total:6      MisBP:0   MisRate:0.00%    MPKI:0.00
PC:164c2     Total:36347      MisBP:0   MisRate:0.00%    MPKI:0.00
PC:13342     Total:296      MisBP:0   MisRate:0.00%    MPKI:0.00
[...]
PC:15e28     Total:36842      MisBP:0   MisRate:0.00%    MPKI:0.00
PC:15e7a     Total:36672      MisBP:0   MisRate:0.00%    MPKI:0.00
PC:10eb8     Total:239      MisBP:0   MisRate:0.00%    MPKI:0.00
PC:15dbc     Total:36424      MisBP:0   MisRate:0.00%    MPKI:0.00
PC:10eac     Total:215      MisBP:0   MisRate:0.00%    MPKI:0.00
PC:15dba     Total:36425      MisBP:0   MisRate:0.00%    MPKI:0.00
PC:15e80     Total:36380      MisBP:0   MisRate:0.00%    MPKI:0.00
PC:15e86     Total:36380      MisBP:0   MisRate:0.00%    MPKI:0.00
PC:15efa     Total:36490      MisBP:0   MisRate:0.00%    MPKI:0.00
PC:10ec0     Total:239      MisBP:0   MisRate:0.00%    MPKI:0.00
PC:15e38     Total:36819      MisBP:0   MisRate:0.00%    MPKI:0.00
PC:15e96     Total:36329      MisBP:0   MisRate:0.00%    MPKI:0.00
PC:15e34     Total:36815      MisBP:0   MisRate:0.00%    MPKI:0.00
PC:10ebc     Total:239      MisBP:0   MisRate:0.00%    MPKI:0.00
PC:15db6     Total:36461      MisBP:0   MisRate:0.00%    MPKI:0.00
PC:15efe     Total:36489      MisBP:0   MisRate:0.00%    MPKI:0.00
PC:10ed8     Total:4      MisBP:0   MisRate:0.00%    MPKI:0.00
PC:15e54     Total:36760      MisBP:0   MisRate:0.00%    MPKI:0.00
PC:15e16     Total:36859      MisBP:0   MisRate:0.00%    MPKI:0.00
PC:15dd2     Total:36351      MisBP:0   MisRate:0.00%    MPKI:0.00
PC:15dce     Total:36351      MisBP:0   MisRate:0.00%    MPKI:0.00
PC:15db4     Total:36461      MisBP:0   MisRate:0.00%    MPKI:0.00
PC:10ea4     Total:215      MisBP:0   MisRate:0.00%    MPKI:0.00
PC:15dca     Total:36351      MisBP:0   MisRate:0.00%    MPKI:0.00
PC:15ee6     Total:36357      MisBP:0   MisRate:0.00%    MPKI:0.00
PC:15dc8     Total:36351      MisBP:0   MisRate:0.00%    MPKI:0.00
PC:15dc6     Total:36351      MisBP:0   MisRate:0.00%    MPKI:0.00
PC:15dc4     Total:36300      MisBP:0   MisRate:0.00%    MPKI:0.00
PC:15eea     Total:36408      MisBP:0   MisRate:0.00%    MPKI:0.00
PC:10ea8     Total:215      MisBP:0   MisRate:0.00%    MPKI:0.00
PC:15e4e     Total:36722      MisBP:0   MisRate:0.00%    MPKI:0.00
PC:15e20     Total:36858      MisBP:0   MisRate:0.00%    MPKI:0.00
PC:15dc0     Total:36300      MisBP:0   MisRate:0.00%    MPKI:0.00
PC:15dc2     Total:36300      MisBP:0   MisRate:0.00%    MPKI:0.00
PC:18dc0     Total:9399      MisBP:1   MisRate:0.01%    MPKI:0.00
PC:125f0     Total:404246      MisBP:1   MisRate:0.00%    MPKI:0.00
PC:11b88     Total:2      MisBP:1   MisRate:50.00%    MPKI:0.00
PC:11c66     Total:5      MisBP:1   MisRate:20.00%    MPKI:0.00
PC:14af2     Total:2      MisBP:1   MisRate:50.00%    MPKI:0.00
PC:11fe0     Total:11      MisBP:1   MisRate:9.09%    MPKI:0.00
PC:125b2     Total:2      MisBP:1   MisRate:50.00%    MPKI:0.00
PC:13000     Total:14      MisBP:1   MisRate:7.14%    MPKI:0.00
PC:39800     Total:2      MisBP:1   MisRate:50.00%    MPKI:0.00
PC:166a8     Total:54      MisBP:1   MisRate:1.85%    MPKI:0.00
PC:11c96     Total:5      MisBP:1   MisRate:20.00%    MPKI:0.00
PC:167d0     Total:905      MisBP:1   MisRate:0.11%    MPKI:0.00
PC:15498     Total:35770      MisBP:1   MisRate:0.00%    MPKI:0.00
PC:12902     Total:220      MisBP:1   MisRate:0.45%    MPKI:0.00
PC:140be     Total:214      MisBP:1   MisRate:0.47%    MPKI:0.00
PC:15196     Total:84      MisBP:1   MisRate:1.19%    MPKI:0.00
PC:29404     Total:268      MisBP:1   MisRate:0.37%    MPKI:0.00
PC:121be     Total:1088      MisBP:1   MisRate:0.09%    MPKI:0.00
PC:1417e     Total:48      MisBP:1   MisRate:2.08%    MPKI:0.00
PC:11d68     Total:6      MisBP:1   MisRate:16.67%    MPKI:0.00
PC:13354     Total:1830      MisBP:2   MisRate:0.11%    MPKI:0.00
PC:14f2e     Total:17      MisBP:2   MisRate:11.76%    MPKI:0.00
PC:13074     Total:2911      MisBP:2   MisRate:0.07%    MPKI:0.00
PC:14bc4     Total:410      MisBP:2   MisRate:0.49%    MPKI:0.00
PC:29348     Total:291      MisBP:2   MisRate:0.69%    MPKI:0.00
PC:16802     Total:3      MisBP:2   MisRate:66.67%    MPKI:0.00
PC:152f0     Total:329      MisBP:2   MisRate:0.61%    MPKI:0.00
PC:165a8     Total:2      MisBP:2   MisRate:100.00%    MPKI:0.00
PC:166f0     Total:12      MisBP:2   MisRate:16.67%    MPKI:0.00
PC:151f8     Total:6      MisBP:2   MisRate:33.33%    MPKI:0.00
PC:15408     Total:35887      MisBP:2   MisRate:0.01%    MPKI:0.00
PC:1104e     Total:216      MisBP:2   MisRate:0.93%    MPKI:0.00
PC:10f9c     Total:223      MisBP:3   MisRate:1.35%    MPKI:0.00
PC:1338e     Total:16      MisBP:3   MisRate:18.75%    MPKI:0.00
PC:1532a     Total:14      MisBP:3   MisRate:21.43%    MPKI:0.00
PC:1272a     Total:220      MisBP:3   MisRate:1.36%    MPKI:0.00
PC:11c90     Total:93      MisBP:3   MisRate:3.23%    MPKI:0.00
PC:11d8a     Total:517      MisBP:3   MisRate:0.58%    MPKI:0.00
PC:15504     Total:13      MisBP:3   MisRate:23.08%    MPKI:0.00
PC:18fa0     Total:19      MisBP:3   MisRate:15.79%    MPKI:0.00
PC:1516a     Total:89      MisBP:3   MisRate:3.37%    MPKI:0.00
PC:16696     Total:57      MisBP:3   MisRate:5.26%    MPKI:0.00
PC:16896     Total:55      MisBP:3   MisRate:5.45%    MPKI:0.00
PC:1208c     Total:750      MisBP:3   MisRate:0.40%    MPKI:0.00
PC:14f58     Total:82      MisBP:3   MisRate:3.66%    MPKI:0.00
PC:1666e     Total:15      MisBP:3   MisRate:20.00%    MPKI:0.00
PC:15934     Total:36466      MisBP:3   MisRate:0.01%    MPKI:0.00
PC:165be     Total:30      MisBP:3   MisRate:10.00%    MPKI:0.00
PC:14bf6     Total:162      MisBP:4   MisRate:2.47%    MPKI:0.00
PC:11cc6     Total:131095      MisBP:4   MisRate:0.00%    MPKI:0.00
PC:140d2     Total:2341      MisBP:4   MisRate:0.17%    MPKI:0.00
PC:16760     Total:16449      MisBP:4   MisRate:0.02%    MPKI:0.00
PC:10ecc     Total:239      MisBP:4   MisRate:1.67%    MPKI:0.00
PC:166b6     Total:53      MisBP:4   MisRate:7.55%    MPKI:0.00
PC:16768     Total:9      MisBP:4   MisRate:44.44%    MPKI:0.00
PC:15286     Total:378      MisBP:4   MisRate:1.06%    MPKI:0.00
PC:12efc     Total:258      MisBP:4   MisRate:1.55%    MPKI:0.00
PC:167fa     Total:19      MisBP:4   MisRate:21.05%    MPKI:0.00
PC:14bde     Total:164      MisBP:4   MisRate:2.44%    MPKI:0.00
PC:3970e     Total:12      MisBP:5   MisRate:41.67%    MPKI:0.00
PC:29354     Total:23      MisBP:5   MisRate:21.74%    MPKI:0.00
PC:111de     Total:54      MisBP:5   MisRate:9.26%    MPKI:0.00
PC:141a8     Total:344      MisBP:5   MisRate:1.45%    MPKI:0.00
PC:153d2     Total:19      MisBP:5   MisRate:26.32%    MPKI:0.00
PC:18de2     Total:92      MisBP:5   MisRate:5.43%    MPKI:0.00
PC:12e56     Total:235      MisBP:5   MisRate:2.13%    MPKI:0.00
PC:11d9a     Total:29      MisBP:5   MisRate:17.24%    MPKI:0.00
PC:11c50     Total:250179      MisBP:5   MisRate:0.00%    MPKI:0.00
PC:29818     Total:24      MisBP:5   MisRate:20.83%    MPKI:0.00
PC:151f0     Total:17      MisBP:5   MisRate:29.41%    MPKI:0.00
PC:11d58     Total:250138      MisBP:6   MisRate:0.00%    MPKI:0.00
PC:18fb2     Total:17      MisBP:6   MisRate:35.29%    MPKI:0.00
PC:12e6c     Total:217866      MisBP:6   MisRate:0.00%    MPKI:0.00
PC:128f6     Total:294      MisBP:6   MisRate:2.04%    MPKI:0.00
PC:12fde     Total:14      MisBP:7   MisRate:50.00%    MPKI:0.00
PC:14f1e     Total:19      MisBP:7   MisRate:36.84%    MPKI:0.00
PC:361f6     Total:114      MisBP:7   MisRate:6.14%    MPKI:0.00
PC:14162     Total:451      MisBP:8   MisRate:1.77%    MPKI:0.00
PC:10158     Total:957      MisBP:8   MisRate:0.84%    MPKI:0.00
PC:1227c     Total:120555      MisBP:8   MisRate:0.01%    MPKI:0.00
PC:16606     Total:18888      MisBP:9   MisRate:0.05%    MPKI:0.00
PC:166e8     Total:62      MisBP:9   MisRate:14.52%    MPKI:0.00
PC:12e5c     Total:280      MisBP:9   MisRate:3.21%    MPKI:0.00
PC:18d92     Total:6377      MisBP:10   MisRate:0.16%    MPKI:0.00
PC:15576     Total:35766      MisBP:10   MisRate:0.03%    MPKI:0.00
PC:29470     Total:259      MisBP:10   MisRate:3.86%    MPKI:0.00
PC:14f16     Total:18904      MisBP:10   MisRate:0.05%    MPKI:0.00
PC:125f6     Total:404248      MisBP:10   MisRate:0.00%    MPKI:0.00
PC:12fd8     Total:16      MisBP:10   MisRate:62.50%    MPKI:0.00
PC:18fd0     Total:13      MisBP:10   MisRate:76.92%    MPKI:0.00
PC:152aa     Total:23      MisBP:10   MisRate:43.48%    MPKI:0.00
PC:11bb4     Total:131105      MisBP:12   MisRate:0.01%    MPKI:0.00
PC:153a8     Total:191      MisBP:12   MisRate:6.28%    MPKI:0.00
PC:13346     Total:296      MisBP:12   MisRate:4.05%    MPKI:0.00
PC:1530e     Total:1551      MisBP:12   MisRate:0.77%    MPKI:0.00
PC:18e8c     Total:190      MisBP:13   MisRate:6.84%    MPKI:0.00
PC:154fa     Total:57      MisBP:13   MisRate:22.81%    MPKI:0.00
PC:121f0     Total:1030      MisBP:14   MisRate:1.36%    MPKI:0.00
PC:293d0     Total:264      MisBP:14   MisRate:5.30%    MPKI:0.00
PC:167f2     Total:3845      MisBP:14   MisRate:0.36%    MPKI:0.00
PC:1593e     Total:35848      MisBP:15   MisRate:0.04%    MPKI:0.00
PC:151e8     Total:1924      MisBP:15   MisRate:0.78%    MPKI:0.00
PC:153cc     Total:54      MisBP:15   MisRate:27.78%    MPKI:0.00
PC:13382     Total:257      MisBP:15   MisRate:5.84%    MPKI:0.00
PC:130ae     Total:1148837      MisBP:16   MisRate:0.00%    MPKI:0.00
PC:12eae     Total:62      MisBP:16   MisRate:25.81%    MPKI:0.00
PC:15444     Total:191      MisBP:17   MisRate:8.90%    MPKI:0.00
PC:154cc     Total:121      MisBP:18   MisRate:14.88%    MPKI:0.00
PC:16644     Total:1735      MisBP:18   MisRate:1.04%    MPKI:0.00
PC:11b12     Total:206616      MisBP:19   MisRate:0.01%    MPKI:0.00
PC:14bfe     Total:15083      MisBP:19   MisRate:0.13%    MPKI:0.00
PC:29654     Total:3317      MisBP:20   MisRate:0.60%    MPKI:0.00
PC:1697a     Total:1157      MisBP:21   MisRate:1.82%    MPKI:0.00
PC:12eda     Total:569      MisBP:22   MisRate:3.87%    MPKI:0.00
PC:1308a     Total:58501      MisBP:22   MisRate:0.04%    MPKI:0.00
PC:15292     Total:393      MisBP:23   MisRate:5.85%    MPKI:0.00
PC:18c2e     Total:15477      MisBP:23   MisRate:0.15%    MPKI:0.00
PC:29804     Total:1790      MisBP:24   MisRate:1.34%    MPKI:0.00
PC:16854     Total:17206      MisBP:26   MisRate:0.15%    MPKI:0.00
PC:297a0     Total:50      MisBP:28   MisRate:56.00%    MPKI:0.00
PC:293c4     Total:283      MisBP:30   MisRate:10.60%    MPKI:0.00
PC:14168     Total:448      MisBP:31   MisRate:6.92%    MPKI:0.00
PC:18e28     Total:1042      MisBP:33   MisRate:3.17%    MPKI:0.00
PC:15302     Total:1852      MisBP:36   MisRate:1.94%    MPKI:0.00
PC:120e6     Total:749      MisBP:36   MisRate:4.81%    MPKI:0.00
PC:153c2     Total:6917      MisBP:37   MisRate:0.53%    MPKI:0.00
PC:15120     Total:141      MisBP:39   MisRate:27.66%    MPKI:0.00
PC:11e2a     Total:98      MisBP:40   MisRate:40.82%    MPKI:0.00
PC:18e84     Total:23680      MisBP:42   MisRate:0.18%    MPKI:0.00
PC:1414a     Total:409      MisBP:46   MisRate:11.25%    MPKI:0.00
PC:166e2     Total:904      MisBP:47   MisRate:5.20%    MPKI:0.00
PC:14bb6     Total:412      MisBP:52   MisRate:12.62%    MPKI:0.00
PC:16692     Total:1528      MisBP:53   MisRate:3.47%    MPKI:0.00
PC:12180     Total:1379      MisBP:57   MisRate:4.13%    MPKI:0.00
PC:12140     Total:825      MisBP:59   MisRate:7.15%    MPKI:0.00
PC:12ea0     Total:217878      MisBP:59   MisRate:0.03%    MPKI:0.00
PC:18e16     Total:9708      MisBP:62   MisRate:0.64%    MPKI:0.00
PC:18bf8     Total:15251      MisBP:65   MisRate:0.43%    MPKI:0.00
PC:18ca4     Total:13355      MisBP:67   MisRate:0.50%    MPKI:0.00
PC:18c4e     Total:599      MisBP:71   MisRate:11.85%    MPKI:0.00
PC:12182     Total:132      MisBP:77   MisRate:58.33%    MPKI:0.00
PC:130c8     Total:176033      MisBP:80   MisRate:0.05%    MPKI:0.00
PC:121dc     Total:1079      MisBP:81   MisRate:7.51%    MPKI:0.00
PC:18de0     Total:9779      MisBP:85   MisRate:0.87%    MPKI:0.00
PC:18b64     Total:13034      MisBP:85   MisRate:0.65%    MPKI:0.00
PC:11e26     Total:5790      MisBP:85   MisRate:1.47%    MPKI:0.00
PC:1511c     Total:1625203      MisBP:92   MisRate:0.01%    MPKI:0.00
PC:166d4     Total:934      MisBP:96   MisRate:10.28%    MPKI:0.00
PC:11dfc     Total:5576      MisBP:114   MisRate:2.04%    MPKI:0.00
PC:1668c     Total:1494      MisBP:124   MisRate:8.30%    MPKI:0.00
PC:18cc4     Total:347      MisBP:133   MisRate:38.33%    MPKI:0.00
PC:12224     Total:632      MisBP:148   MisRate:23.42%    MPKI:0.00
PC:15440     Total:989      MisBP:149   MisRate:15.07%    MPKI:0.00
PC:11f7a     Total:115205      MisBP:154   MisRate:0.13%    MPKI:0.00
PC:167cc     Total:955      MisBP:167   MisRate:17.49%    MPKI:0.00
PC:29454     Total:1000      MisBP:236   MisRate:23.60%    MPKI:0.00
PC:1221c     Total:506796      MisBP:252   MisRate:0.05%    MPKI:0.00
PC:130b6     Total:1146914      MisBP:345   MisRate:0.03%    MPKI:0.00
PC:18c62     Total:68426      MisBP:361   MisRate:0.53%    MPKI:0.00
PC:1211e     Total:461935      MisBP:364   MisRate:0.08%    MPKI:0.00
PC:18cd8     Total:59870      MisBP:366   MisRate:0.61%    MPKI:0.00
PC:167e4     Total:3882      MisBP:481   MisRate:12.39%    MPKI:0.00
PC:12d9c     Total:61683      MisBP:492   MisRate:0.80%    MPKI:0.00
PC:1207e     Total:169659      MisBP:501   MisRate:0.30%    MPKI:0.00
PC:12da0     Total:21170      MisBP:504   MisRate:2.38%    MPKI:0.00
PC:167b8     Total:3627      MisBP:510   MisRate:14.06%    MPKI:0.00
PC:11e60     Total:167237      MisBP:581   MisRate:0.35%    MPKI:0.00
PC:120ce     Total:122299      MisBP:635   MisRate:0.52%    MPKI:0.00
PC:121ae     Total:128618      MisBP:707   MisRate:0.55%    MPKI:0.00
PC:12178     Total:506383      MisBP:732   MisRate:0.14%    MPKI:0.00
PC:18cfe     Total:56432      MisBP:762   MisRate:1.35%    MPKI:0.00
PC:18d84     Total:7351      MisBP:816   MisRate:11.10%    MPKI:0.00
PC:18bce     Total:15332      MisBP:922   MisRate:6.01%    MPKI:0.00
PC:11e18     Total:10121      MisBP:1285   MisRate:12.70%    MPKI:0.00
PC:18b5a     Total:12581      MisBP:1360   MisRate:10.81%    MPKI:0.00
PC:18d68     Total:13442      MisBP:2252   MisRate:16.75%    MPKI:0.01
PC:11e7e     Total:89817      MisBP:2798   MisRate:3.12%    MPKI:0.01
PC:18c88     Total:62552      MisBP:2817   MisRate:4.50%    MPKI:0.01
PC:11aee     Total:228203      MisBP:3387   MisRate:1.48%    MPKI:0.01
PC:16740     Total:14911      MisBP:3479   MisRate:23.33%    MPKI:0.01
PC:11ada     Total:248483      MisBP:3517   MisRate:1.42%    MPKI:0.01
PC:165e6     Total:17044      MisBP:3820   MisRate:22.41%    MPKI:0.01
PC:12476     Total:26826      MisBP:4315   MisRate:16.09%    MPKI:0.01
PC:13086     Total:1026164      MisBP:4456   MisRate:0.43%    MPKI:0.01
PC:11ac4     Total:284020      MisBP:4483   MisRate:1.58%    MPKI:0.01
PC:12430     Total:23643      MisBP:4632   MisRate:19.59%    MPKI:0.01
PC:16752     Total:25573      MisBP:4813   MisRate:18.82%    MPKI:0.02
PC:11f64     Total:40279      MisBP:4968   MisRate:12.33%    MPKI:0.02
PC:123f8     Total:26144      MisBP:5150   MisRate:19.70%    MPKI:0.02
PC:18c5a     Total:58789      MisBP:5198   MisRate:8.84%    MPKI:0.02
PC:14a5a     Total:501241      MisBP:5498   MisRate:1.10%    MPKI:0.02
PC:11aae     Total:343989      MisBP:5779   MisRate:1.68%    MPKI:0.02
PC:18cd0     Total:54978      MisBP:5812   MisRate:10.57%    MPKI:0.02
PC:123d8     Total:74059      MisBP:6106   MisRate:8.24%    MPKI:0.02
PC:165f8     Total:78908      MisBP:6201   MisRate:7.86%    MPKI:0.02
PC:18bec     Total:91710      MisBP:6800   MisRate:7.41%    MPKI:0.02
PC:11a98     Total:387802      MisBP:7319   MisRate:1.89%    MPKI:0.02
PC:11ae6     Total:243918      MisBP:7325   MisRate:3.00%    MPKI:0.02
PC:18dd0     Total:270018      MisBP:7435   MisRate:2.75%    MPKI:0.02
PC:11f08     Total:44353      MisBP:7729   MisRate:17.43%    MPKI:0.02
PC:124aa     Total:29955      MisBP:8208   MisRate:27.40%    MPKI:0.03
PC:12242     Total:68557      MisBP:8955   MisRate:13.06%    MPKI:0.03
PC:11ad0     Total:275852      MisBP:9201   MisRate:3.34%    MPKI:0.03
PC:11a82     Total:446485      MisBP:10031   MisRate:2.25%    MPKI:0.03
PC:11e6a     Total:166901      MisBP:10574   MisRate:6.34%    MPKI:0.03
PC:11a6c     Total:519608      MisBP:11484   MisRate:2.21%    MPKI:0.04
PC:11aba     Total:325208      MisBP:12659   MisRate:3.89%    MPKI:0.04
PC:11aa4     Total:360289      MisBP:13909   MisRate:3.86%    MPKI:0.04
PC:12418     Total:330430      MisBP:14674   MisRate:4.44%    MPKI:0.05
PC:11a8e     Total:411599      MisBP:15933   MisRate:3.87%    MPKI:0.05
PC:12030     Total:1582383      MisBP:16347   MisRate:1.03%    MPKI:0.05
PC:11a78     Total:470350      MisBP:17365   MisRate:3.69%    MPKI:0.06
PC:11a5e     Total:541052      MisBP:17754   MisRate:3.28%    MPKI:0.06
PC:12454     Total:257777      MisBP:18090   MisRate:7.02%    MPKI:0.06
PC:11ec8     Total:100851      MisBP:18563   MisRate:18.41%    MPKI:0.06
PC:11a4a     Total:661616      MisBP:19201   MisRate:2.90%    MPKI:0.06
PC:12d8a     Total:232845      MisBP:22006   MisRate:9.45%    MPKI:0.07
PC:123ba     Total:257196      MisBP:22685   MisRate:8.82%    MPKI:0.07
PC:11a20     Total:563983      MisBP:23479   MisRate:4.16%    MPKI:0.08
PC:1234a     Total:358475      MisBP:24078   MisRate:6.72%    MPKI:0.08
PC:122f2     Total:437064      MisBP:24312   MisRate:5.56%    MPKI:0.08
PC:11a28     Total:547327      MisBP:24736   MisRate:4.52%    MPKI:0.08
PC:11a3a     Total:715833      MisBP:25050   MisRate:3.50%    MPKI:0.08
PC:11f5c     Total:2304267      MisBP:26808   MisRate:1.16%    MPKI:0.09
PC:1236c     Total:432601      MisBP:27437   MisRate:6.34%    MPKI:0.09
PC:150d8     Total:229938      MisBP:27820   MisRate:12.10%    MPKI:0.09
PC:12102     Total:440360      MisBP:28386   MisRate:6.45%    MPKI:0.09
PC:122be     Total:384872      MisBP:29872   MisRate:7.76%    MPKI:0.10
PC:11a04     Total:636966      MisBP:31789   MisRate:4.99%    MPKI:0.10
PC:123c4     Total:81928      MisBP:33498   MisRate:40.89%    MPKI:0.11
PC:12314     Total:474404      MisBP:33796   MisRate:7.12%    MPKI:0.11
PC:1546e     Total:414157      MisBP:35716   MisRate:8.62%    MPKI:0.12
PC:15402     Total:465451      MisBP:35801   MisRate:7.69%    MPKI:0.12
PC:1215e     Total:486773      MisBP:36240   MisRate:7.44%    MPKI:0.12
PC:119fc     Total:716798      MisBP:45558   MisRate:6.36%    MPKI:0.15
PC:11a0c     Total:605756      MisBP:46850   MisRate:7.73%    MPKI:0.15
PC:119f4     Total:756402      MisBP:50193   MisRate:6.64%    MPKI:0.16
PC:119e4     Total:895013      MisBP:54255   MisRate:6.06%    MPKI:0.18
PC:12250     Total:366425      MisBP:57737   MisRate:15.76%    MPKI:0.19
PC:130c2     Total:1142780      MisBP:62171   MisRate:5.44%    MPKI:0.20
PC:150e2     Total:472499      MisBP:65670   MisRate:13.90%    MPKI:0.21
PC:1508e     Total:425501      MisBP:88150   MisRate:20.72%    MPKI:0.28
PC:12014     Total:856495      MisBP:103348   MisRate:12.07%    MPKI:0.33
PC:119dc     Total:1017935      MisBP:113211   MisRate:11.12%    MPKI:0.37
PC:12042     Total:1119768      MisBP:119889   MisRate:10.71%    MPKI:0.39
PC:1238c     Total:566502      MisBP:129399   MisRate:22.84%    MPKI:0.42
PC:119ec     Total:835013      MisBP:139827   MisRate:16.75%    MPKI:0.45
PC:12334     Total:667945      MisBP:142530   MisRate:21.34%    MPKI:0.46
PC:122dc     Total:611558      MisBP:149989   MisRate:24.53%    MPKI:0.48
PC:119d4     Total:1116720      MisBP:157000   MisRate:14.06%    MPKI:0.51
PC:11f40     Total:2089155      MisBP:181362   MisRate:8.68%    MPKI:0.59
PC:150f4     Total:7580182      MisBP:192826   MisRate:2.54%    MPKI:0.62
PC:119cc     Total:1341121      MisBP:199346   MisRate:14.86%    MPKI:0.64
PC:14a2e     Total:960997      MisBP:203785   MisRate:21.21%    MPKI:0.66
PC:12040     Total:1684120      MisBP:207261   MisRate:12.31%    MPKI:0.67
PC:119b6     Total:1992494      MisBP:209703   MisRate:10.52%    MPKI:0.68
PC:1508c     Total:1491635      MisBP:211456   MisRate:14.18%    MPKI:0.68
Totfetch:549253465  TotInsts:310000001  TotMis : inf%   MPKI : 12.29
=============finish sim!!!!!!=============
Done running SimPoint!
