Global frequency set at 1000000000000 ticks per second
 Register [printBranch()] ExitCallback !!!!!!! 
gem5 Simulator System.  https://www.gem5.org
gem5 is copyrighted software; use the --copyright option for details.

gem5 version 22.0.0.2
gem5 compiled Sep  7 2022 00:42:18
gem5 started Sep  7 2022 05:24:34
gem5 executing on a100, pid 2804693
command line: /data/zxf/gem5/gem5-prof/build/ARM/gem5.fast --outdir=/data/zxf/checkpoint/spec2006/445.gobmk/prof/gobmk_ckp_12 /data/zxf/gem5/gem5-prof/configs/example/se.py --cpu-type O3CPU --cpu-clock 1GHz --num-cpu 1 --caches --l2cache --l1i_size 32kB --l1d_size 32kB --l2_size 1MB --l1i_assoc 8 --l1d_assoc 8 --l2_assoc 16 --cacheline_size 64 --mem-type DDR3_2133_8x8 --mem-size 16GB --l1d-hwp-type=BOPPrefetcher --restore-simpoint-checkpoint -r 12 --checkpoint-dir /data/zxf/checkpoint/spec2006/445.gobmk/ckpt -i 13x13.tst -c gobmk_base.gcc41-64bit -o '--quiet --mode gtp'

info: Standard input is not a terminal, disabling listeners.
Resuming from /data/zxf/checkpoint/spec2006/445.gobmk/ckpt/cpt.simpoint_11_inst_217190000000_weight_0.086283_interval_300000000_warmup_10000000
Resuming from SimPoint #11, start_inst:217190000000, weight:0.086283, interval:300000000, warmup:10000000
Switch at curTick count:10000
Switched CPUS @ tick 146748920754000
[(<m5.objects.ArmCPU.ArmAtomicSimpleCPU object at 0x7f7517c52bb0>, <m5.objects.ArmCPU.ArmO3CPU object at 0x7f7517c6be20>)]
switching cpus



+++++++++++++++++++++++++zxf print simpoint+++++++++++++++++++++++++++
Warmed up! Dumping and resetting stats!


=============start sim!!!!!!=============
PC:167ec     Total:3160      MisBP:0   MisRate:0.00%    MPKI:0.00
PC:162ca     Total:21896      MisBP:0   MisRate:0.00%    MPKI:0.00
PC:7cd18     Total:1      MisBP:0   MisRate:0.00%    MPKI:0.00
PC:3eb4e     Total:2375      MisBP:0   MisRate:0.00%    MPKI:0.00
PC:15a62     Total:85218      MisBP:0   MisRate:0.00%    MPKI:0.00
PC:162c6     Total:16359      MisBP:0   MisRate:0.00%    MPKI:0.00
PC:7cd14     Total:10      MisBP:0   MisRate:0.00%    MPKI:0.00
PC:3f3b2     Total:8      MisBP:0   MisRate:0.00%    MPKI:0.00
PC:3eb4c     Total:823      MisBP:0   MisRate:0.00%    MPKI:0.00
PC:162c4     Total:16359      MisBP:0   MisRate:0.00%    MPKI:0.00
PC:7cd12     Total:10      MisBP:0   MisRate:0.00%    MPKI:0.00
PC:3f3b0     Total:5      MisBP:0   MisRate:0.00%    MPKI:0.00
PC:15a5c     Total:85230      MisBP:0   MisRate:0.00%    MPKI:0.00
PC:162c0     Total:16359      MisBP:0   MisRate:0.00%    MPKI:0.00
PC:7cd0e     Total:10      MisBP:0   MisRate:0.00%    MPKI:0.00
PC:3f3ac     Total:5      MisBP:0   MisRate:0.00%    MPKI:0.00
PC:3f3b8     Total:7      MisBP:0   MisRate:0.00%    MPKI:0.00
PC:2fc72     Total:133      MisBP:0   MisRate:0.00%    MPKI:0.00
PC:84d98     Total:227003      MisBP:0   MisRate:0.00%    MPKI:0.00
PC:2fc70     Total:133      MisBP:0   MisRate:0.00%    MPKI:0.00
PC:1b3fa     Total:441      MisBP:0   MisRate:0.00%    MPKI:0.00
PC:167e6     Total:3161      MisBP:0   MisRate:0.00%    MPKI:0.00
PC:3f8d2     Total:720      MisBP:0   MisRate:0.00%    MPKI:0.00
PC:1b828     Total:75418      MisBP:0   MisRate:0.00%    MPKI:0.00
PC:167e4     Total:18134      MisBP:0   MisRate:0.00%    MPKI:0.00
PC:2fc6a     Total:133      MisBP:0   MisRate:0.00%    MPKI:0.00
PC:1b3f4     Total:441      MisBP:0   MisRate:0.00%    MPKI:0.00
PC:1b826     Total:75418      MisBP:0   MisRate:0.00%    MPKI:0.00
PC:3009c     Total:1      MisBP:0   MisRate:0.00%    MPKI:0.00
PC:167e0     Total:18134      MisBP:0   MisRate:0.00%    MPKI:0.00
PC:2fc66     Total:133      MisBP:0   MisRate:0.00%    MPKI:0.00
PC:1b3f0     Total:2637      MisBP:0   MisRate:0.00%    MPKI:0.00
PC:162d4     Total:41255      MisBP:0   MisRate:0.00%    MPKI:0.00
PC:3eb6c     Total:2319      MisBP:0   MisRate:0.00%    MPKI:0.00
PC:162e4     Total:13907      MisBP:0   MisRate:0.00%    MPKI:0.00
PC:3f3d0     Total:6      MisBP:0   MisRate:0.00%    MPKI:0.00
PC:3eb68     Total:2382      MisBP:0   MisRate:0.00%    MPKI:0.00
PC:162de     Total:46448      MisBP:0   MisRate:0.00%    MPKI:0.00
PC:7cd2c     Total:1      MisBP:0   MisRate:0.00%    MPKI:0.00
PC:3f3ca     Total:6      MisBP:0   MisRate:0.00%    MPKI:0.00
PC:3eb64     Total:2387      MisBP:0   MisRate:0.00%    MPKI:0.00
PC:15a78     Total:83620      MisBP:0   MisRate:0.00%    MPKI:0.00
PC:162dc     Total:46448      MisBP:0   MisRate:0.00%    MPKI:0.00
PC:3f3c8     Total:6      MisBP:0   MisRate:0.00%    MPKI:0.00
PC:162da     Total:46609      MisBP:0   MisRate:0.00%    MPKI:0.00
PC:7cd28     Total:1      MisBP:0   MisRate:0.00%    MPKI:0.00
PC:3f3c2     Total:6      MisBP:0   MisRate:0.00%    MPKI:0.00
PC:3eb5c     Total:2348      MisBP:0   MisRate:0.00%    MPKI:0.00
PC:1b822     Total:72953      MisBP:0   MisRate:0.00%    MPKI:0.00
PC:7cd22     Total:1      MisBP:0   MisRate:0.00%    MPKI:0.00
PC:3eb5a     Total:2348      MisBP:0   MisRate:0.00%    MPKI:0.00
PC:15a6e     Total:167264      MisBP:0   MisRate:0.00%    MPKI:0.00
PC:162d2     Total:41804      MisBP:0   MisRate:0.00%    MPKI:0.00
PC:7cd20     Total:1      MisBP:0   MisRate:0.00%    MPKI:0.00
PC:3f3be     Total:4      MisBP:0   MisRate:0.00%    MPKI:0.00
PC:3eb56     Total:2348      MisBP:0   MisRate:0.00%    MPKI:0.00
PC:15a6a     Total:85710      MisBP:0   MisRate:0.00%    MPKI:0.00
PC:162ce     Total:21896      MisBP:0   MisRate:0.00%    MPKI:0.00
PC:7cd1c     Total:1      MisBP:0   MisRate:0.00%    MPKI:0.00
PC:3f3ba     Total:7      MisBP:0   MisRate:0.00%    MPKI:0.00
PC:3eb54     Total:2371      MisBP:0   MisRate:0.00%    MPKI:0.00
PC:15a68     Total:85195      MisBP:0   MisRate:0.00%    MPKI:0.00
PC:162cc     Total:21896      MisBP:0   MisRate:0.00%    MPKI:0.00
PC:2fc4e     Total:133      MisBP:0   MisRate:0.00%    MPKI:0.00
PC:3f244     Total:523      MisBP:0   MisRate:0.00%    MPKI:0.00
PC:7cba6     Total:4      MisBP:0   MisRate:0.00%    MPKI:0.00
PC:167ce     Total:18125      MisBP:0   MisRate:0.00%    MPKI:0.00
PC:3f8ba     Total:30      MisBP:0   MisRate:0.00%    MPKI:0.00
PC:1b810     Total:30307      MisBP:0   MisRate:0.00%    MPKI:0.00
PC:3e9de     Total:4916      MisBP:0   MisRate:0.00%    MPKI:0.00
PC:158f2     Total:19233      MisBP:0   MisRate:0.00%    MPKI:0.00
PC:7c340     Total:14      MisBP:0   MisRate:0.00%    MPKI:0.00
PC:2fc52     Total:133      MisBP:0   MisRate:0.00%    MPKI:0.00
PC:1b3dc     Total:2843      MisBP:0   MisRate:0.00%    MPKI:0.00
PC:1b80e     Total:30307      MisBP:0   MisRate:0.00%    MPKI:0.00
PC:30084     Total:2      MisBP:0   MisRate:0.00%    MPKI:0.00
PC:3f240     Total:523      MisBP:0   MisRate:0.00%    MPKI:0.00
PC:3e9dc     Total:4916      MisBP:0   MisRate:0.00%    MPKI:0.00
PC:158f0     Total:19798      MisBP:0   MisRate:0.00%    MPKI:0.00
PC:16158     Total:29013      MisBP:0   MisRate:0.00%    MPKI:0.00
PC:1b3d8     Total:2843      MisBP:0   MisRate:0.00%    MPKI:0.00
PC:1b80a     Total:30307      MisBP:0   MisRate:0.00%    MPKI:0.00
PC:30080     Total:2      MisBP:0   MisRate:0.00%    MPKI:0.00
PC:84d74     Total:202234      MisBP:0   MisRate:0.00%    MPKI:0.00
PC:995ea     Total:12      MisBP:0   MisRate:0.00%    MPKI:0.00
PC:16150     Total:16625      MisBP:0   MisRate:0.00%    MPKI:0.00
PC:3f23c     Total:589      MisBP:0   MisRate:0.00%    MPKI:0.00
PC:167c6     Total:18157      MisBP:0   MisRate:0.00%    MPKI:0.00
PC:3e9d6     Total:4938      MisBP:0   MisRate:0.00%    MPKI:0.00
PC:158ea     Total:19800      MisBP:0   MisRate:0.00%    MPKI:0.00
PC:84d6e     Total:202780      MisBP:0   MisRate:0.00%    MPKI:0.00
PC:995e4     Total:19      MisBP:0   MisRate:0.00%    MPKI:0.00
PC:32b96     Total:58      MisBP:0   MisRate:0.00%    MPKI:0.00
PC:3e9d2     Total:4938      MisBP:0   MisRate:0.00%    MPKI:0.00
PC:2fc5e     Total:133      MisBP:0   MisRate:0.00%    MPKI:0.00
PC:30098     Total:1      MisBP:0   MisRate:0.00%    MPKI:0.00
PC:16168     Total:19685      MisBP:0   MisRate:0.00%    MPKI:0.00
PC:3f254     Total:630      MisBP:0   MisRate:0.00%    MPKI:0.00
PC:167de     Total:18134      MisBP:0   MisRate:0.00%    MPKI:0.00
PC:3f8ca     Total:720      MisBP:0   MisRate:0.00%    MPKI:0.00
PC:2fc64     Total:133      MisBP:0   MisRate:0.00%    MPKI:0.00
PC:1b3ee     Total:2637      MisBP:0   MisRate:0.00%    MPKI:0.00
PC:30096     Total:2      MisBP:0   MisRate:0.00%    MPKI:0.00
PC:3e9ee     Total:12674      MisBP:0   MisRate:0.00%    MPKI:0.00
PC:167da     Total:18125      MisBP:0   MisRate:0.00%    MPKI:0.00
PC:16162     Total:19692      MisBP:0   MisRate:0.00%    MPKI:0.00
PC:3f24e     Total:523      MisBP:0   MisRate:0.00%    MPKI:0.00
PC:7cbb0     Total:4      MisBP:0   MisRate:0.00%    MPKI:0.00
PC:167d8     Total:18125      MisBP:0   MisRate:0.00%    MPKI:0.00
PC:3f8c4     Total:720      MisBP:0   MisRate:0.00%    MPKI:0.00
PC:162ec     Total:16631      MisBP:0   MisRate:0.00%    MPKI:0.00
PC:1b3e8     Total:2843      MisBP:0   MisRate:0.00%    MPKI:0.00
PC:1b81a     Total:30246      MisBP:0   MisRate:0.00%    MPKI:0.00
PC:30090     Total:2      MisBP:0   MisRate:0.00%    MPKI:0.00
PC:3e9e8     Total:13306      MisBP:0   MisRate:0.00%    MPKI:0.00
PC:167d4     Total:18125      MisBP:0   MisRate:0.00%    MPKI:0.00
PC:3f8c0     Total:720      MisBP:0   MisRate:0.00%    MPKI:0.00
PC:1615c     Total:29007      MisBP:0   MisRate:0.00%    MPKI:0.00
PC:3f248     Total:523      MisBP:0   MisRate:0.00%    MPKI:0.00
PC:7cbaa     Total:4      MisBP:0   MisRate:0.00%    MPKI:0.00
PC:3e9e4     Total:13306      MisBP:0   MisRate:0.00%    MPKI:0.00
PC:1f828     Total:344      MisBP:0   MisRate:0.00%    MPKI:0.00
PC:84d7c     Total:219100      MisBP:0   MisRate:0.00%    MPKI:0.00
PC:995f2     Total:12      MisBP:0   MisRate:0.00%    MPKI:0.00
PC:32ba4     Total:58      MisBP:0   MisRate:0.00%    MPKI:0.00
PC:1f67c     Total:82034      MisBP:0   MisRate:0.00%    MPKI:0.00
PC:3ed68     Total:46      MisBP:0   MisRate:0.00%    MPKI:0.00
PC:1f688     Total:1780      MisBP:0   MisRate:0.00%    MPKI:0.00
PC:15c78     Total:2944      MisBP:0   MisRate:0.00%    MPKI:0.00
PC:1acba     Total:137527      MisBP:0   MisRate:0.00%    MPKI:0.00
PC:1f684     Total:18646      MisBP:0   MisRate:0.00%    MPKI:0.00
PC:40012     Total:18      MisBP:0   MisRate:0.00%    MPKI:0.00
PC:15c74     Total:2944      MisBP:0   MisRate:0.00%    MPKI:0.00
PC:1acb6     Total:122945      MisBP:0   MisRate:0.00%    MPKI:0.00
PC:1f680     Total:38090      MisBP:0   MisRate:0.00%    MPKI:0.00
PC:47f08     Total:1549      MisBP:0   MisRate:0.00%    MPKI:0.00
PC:33692     Total:117      MisBP:0   MisRate:0.00%    MPKI:0.00
PC:4000e     Total:18      MisBP:0   MisRate:0.00%    MPKI:0.00
PC:16f22     Total:11765      MisBP:0   MisRate:0.00%    MPKI:0.00
PC:15c70     Total:2999      MisBP:0   MisRate:0.00%    MPKI:0.00
PC:1acb2     Total:126765      MisBP:0   MisRate:0.00%    MPKI:0.00
PC:15c7c     Total:2944      MisBP:0   MisRate:0.00%    MPKI:0.00
PC:15c6e     Total:2999      MisBP:0   MisRate:0.00%    MPKI:0.00
PC:3ed5a     Total:1358      MisBP:0   MisRate:0.00%    MPKI:0.00
PC:1acb0     Total:126765      MisBP:0   MisRate:0.00%    MPKI:0.00
PC:1f67a     Total:162      MisBP:0   MisRate:0.00%    MPKI:0.00
PC:47f02     Total:1549      MisBP:0   MisRate:0.00%    MPKI:0.00
PC:4000a     Total:459      MisBP:0   MisRate:0.00%    MPKI:0.00
PC:16f1e     Total:11765      MisBP:0   MisRate:0.00%    MPKI:0.00
PC:15c6c     Total:2999      MisBP:0   MisRate:0.00%    MPKI:0.00
PC:1acae     Total:130330      MisBP:0   MisRate:0.00%    MPKI:0.00
PC:15c6a     Total:2999      MisBP:0   MisRate:0.00%    MPKI:0.00
PC:1f676     Total:164      MisBP:0   MisRate:0.00%    MPKI:0.00
PC:47efe     Total:1549      MisBP:0   MisRate:0.00%    MPKI:0.00
PC:33688     Total:115      MisBP:0   MisRate:0.00%    MPKI:0.00
PC:15c66     Total:2999      MisBP:0   MisRate:0.00%    MPKI:0.00
PC:3ed52     Total:4464      MisBP:0   MisRate:0.00%    MPKI:0.00
PC:16662     Total:24420      MisBP:0   MisRate:0.00%    MPKI:0.00
PC:3df4c     Total:2      MisBP:0   MisRate:0.00%    MPKI:0.00
PC:1c59a     Total:6240      MisBP:0   MisRate:0.00%    MPKI:0.00
PC:99ade     Total:70      MisBP:0   MisRate:0.00%    MPKI:0.00
PC:14e5c     Total:258721      MisBP:0   MisRate:0.00%    MPKI:0.00
PC:3df48     Total:3      MisBP:0   MisRate:0.00%    MPKI:0.00
PC:1c596     Total:6241      MisBP:0   MisRate:0.00%    MPKI:0.00
PC:47902     Total:615      MisBP:0   MisRate:0.00%    MPKI:0.00
PC:14e58     Total:259592      MisBP:0   MisRate:0.00%    MPKI:0.00
PC:3df44     Total:3      MisBP:0   MisRate:0.00%    MPKI:0.00
PC:1c592     Total:6758      MisBP:0   MisRate:0.00%    MPKI:0.00
PC:334b0     Total:98      MisBP:0   MisRate:0.00%    MPKI:0.00
PC:14e4a     Total:55285      MisBP:0   MisRate:0.00%    MPKI:0.00
PC:1c584     Total:6778      MisBP:0   MisRate:0.00%    MPKI:0.00
PC:3e872     Total:544      MisBP:0   MisRate:0.00%    MPKI:0.00
PC:15786     Total:99004      MisBP:0   MisRate:0.00%    MPKI:0.00
PC:1aca8     Total:126037      MisBP:0   MisRate:0.00%    MPKI:0.00
PC:167b2     Total:9142      MisBP:0   MisRate:0.00%    MPKI:0.00
PC:3f89e     Total:30      MisBP:0   MisRate:0.00%    MPKI:0.00
PC:3e9c2     Total:3547      MisBP:0   MisRate:0.00%    MPKI:0.00
PC:158d6     Total:41127      MisBP:0   MisRate:0.00%    MPKI:0.00
PC:2f6ac     Total:107      MisBP:0   MisRate:0.00%    MPKI:0.00
PC:1ae36     Total:20304      MisBP:0   MisRate:0.00%    MPKI:0.00
PC:3e74c     Total:30384      MisBP:0   MisRate:0.00%    MPKI:0.00
PC:15660     Total:67381      MisBP:0   MisRate:0.00%    MPKI:0.00
PC:9edfc     Total:13209      MisBP:0   MisRate:0.00%    MPKI:0.00
PC:6149a     Total:18      MisBP:0   MisRate:0.00%    MPKI:0.00
PC:2f686     Total:99      MisBP:0   MisRate:0.00%    MPKI:0.00
PC:1ae10     Total:100649      MisBP:0   MisRate:0.00%    MPKI:0.00
PC:3c2f8     Total:555178      MisBP:0   MisRate:0.00%    MPKI:0.00
PC:1912a     Total:5877      MisBP:0   MisRate:0.00%    MPKI:0.00
PC:40ec0     Total:17514      MisBP:0   MisRate:0.00%    MPKI:0.00
PC:1f65c     Total:171      MisBP:0   MisRate:0.00%    MPKI:0.00
PC:47ee4     Total:1564      MisBP:0   MisRate:0.00%    MPKI:0.00
PC:3366e     Total:56      MisBP:0   MisRate:0.00%    MPKI:0.00
PC:15c4e     Total:3078      MisBP:0   MisRate:0.00%    MPKI:0.00
PC:3ed3a     Total:11827      MisBP:0   MisRate:0.00%    MPKI:0.00
PC:24d14     Total:63450      MisBP:0   MisRate:0.00%    MPKI:0.00
PC:1ac90     Total:153896      MisBP:0   MisRate:0.00%    MPKI:0.00
PC:47ee2     Total:1564      MisBP:0   MisRate:0.00%    MPKI:0.00
PC:3ffe8     Total:23826      MisBP:0   MisRate:0.00%    MPKI:0.00
PC:15c4a     Total:3078      MisBP:0   MisRate:0.00%    MPKI:0.00
PC:24d10     Total:128640      MisBP:0   MisRate:0.00%    MPKI:0.00
PC:1ac8c     Total:153896      MisBP:0   MisRate:0.00%    MPKI:0.00
PC:3ffe4     Total:23882      MisBP:0   MisRate:0.00%    MPKI:0.00
PC:4065c     Total:7875      MisBP:0   MisRate:0.00%    MPKI:0.00
PC:17dd4     Total:65576      MisBP:0   MisRate:0.00%    MPKI:0.00
PC:3ed3c     Total:11827      MisBP:0   MisRate:0.00%    MPKI:0.00
PC:15c46     Total:3078      MisBP:0   MisRate:0.00%    MPKI:0.00
PC:24d0c     Total:65062      MisBP:0   MisRate:0.00%    MPKI:0.00
PC:1ac88     Total:153898      MisBP:0   MisRate:0.00%    MPKI:0.00
PC:3dcb8     Total:260      MisBP:0   MisRate:0.00%    MPKI:0.00
PC:47eda     Total:1564      MisBP:0   MisRate:0.00%    MPKI:0.00
PC:3ffe2     Total:23883      MisBP:0   MisRate:0.00%    MPKI:0.00
PC:16ef6     Total:14807      MisBP:0   MisRate:0.00%    MPKI:0.00
PC:15c44     Total:3078      MisBP:0   MisRate:0.00%    MPKI:0.00
PC:3ed30     Total:11828      MisBP:0   MisRate:0.00%    MPKI:0.00
PC:24d0a     Total:65062      MisBP:0   MisRate:0.00%    MPKI:0.00
PC:3dcb6     Total:153      MisBP:0   MisRate:0.00%    MPKI:0.00
PC:1f650     Total:25      MisBP:0   MisRate:0.00%    MPKI:0.00
PC:47ed8     Total:1564      MisBP:0   MisRate:0.00%    MPKI:0.00
PC:33662     Total:56      MisBP:0   MisRate:0.00%    MPKI:0.00
PC:1ac9c     Total:153760      MisBP:0   MisRate:0.00%    MPKI:0.00
PC:1f672     Total:170      MisBP:0   MisRate:0.00%    MPKI:0.00
PC:47efa     Total:1560      MisBP:0   MisRate:0.00%    MPKI:0.00
PC:33684     Total:115      MisBP:0   MisRate:0.00%    MPKI:0.00
PC:15c62     Total:2999      MisBP:0   MisRate:0.00%    MPKI:0.00
PC:3ed4e     Total:4465      MisBP:0   MisRate:0.00%    MPKI:0.00
PC:1f66e     Total:170      MisBP:0   MisRate:0.00%    MPKI:0.00
PC:47ef6     Total:1560      MisBP:0   MisRate:0.00%    MPKI:0.00
PC:40674     Total:6779      MisBP:0   MisRate:0.00%    MPKI:0.00
PC:15c5e     Total:2999      MisBP:0   MisRate:0.00%    MPKI:0.00
PC:3ed4a     Total:4466      MisBP:0   MisRate:0.00%    MPKI:0.00
PC:40670     Total:6869      MisBP:0   MisRate:0.00%    MPKI:0.00
PC:17de8     Total:69942      MisBP:0   MisRate:0.00%    MPKI:0.00
PC:40ed4     Total:17063      MisBP:0   MisRate:0.00%    MPKI:0.00
PC:15c5a     Total:2999      MisBP:0   MisRate:0.00%    MPKI:0.00
PC:3ed46     Total:10857      MisBP:0   MisRate:0.00%    MPKI:0.00
PC:167c0     Total:18158      MisBP:0   MisRate:0.00%    MPKI:0.00
PC:47eee     Total:1560      MisBP:0   MisRate:0.00%    MPKI:0.00
PC:33678     Total:56      MisBP:0   MisRate:0.00%    MPKI:0.00
PC:17de4     Total:64736      MisBP:0   MisRate:0.00%    MPKI:0.00
PC:40ed0     Total:17463      MisBP:0   MisRate:0.00%    MPKI:0.00
PC:15c56     Total:3078      MisBP:0   MisRate:0.00%    MPKI:0.00
PC:47eea     Total:1560      MisBP:0   MisRate:0.00%    MPKI:0.00
PC:33674     Total:56      MisBP:0   MisRate:0.00%    MPKI:0.00
PC:15c52     Total:3078      MisBP:0   MisRate:0.00%    MPKI:0.00
PC:3ed3e     Total:11501      MisBP:0   MisRate:0.00%    MPKI:0.00
PC:1ac94     Total:153896      MisBP:0   MisRate:0.00%    MPKI:0.00
PC:40666     Total:6906      MisBP:0   MisRate:0.00%    MPKI:0.00
PC:17dde     Total:64738      MisBP:0   MisRate:0.00%    MPKI:0.00
PC:40eca     Total:17483      MisBP:0   MisRate:0.00%    MPKI:0.00
PC:15c50     Total:3078      MisBP:0   MisRate:0.00%    MPKI:0.00
PC:72a34     Total:946      MisBP:0   MisRate:0.00%    MPKI:0.00
PC:15bfa     Total:21545      MisBP:0   MisRate:0.00%    MPKI:0.00
PC:3ece6     Total:6097      MisBP:0   MisRate:0.00%    MPKI:0.00
PC:1770c     Total:704      MisBP:0   MisRate:0.00%    MPKI:0.00
PC:72a3e     Total:943      MisBP:0   MisRate:0.00%    MPKI:0.00
PC:16ea8     Total:1190      MisBP:0   MisRate:0.00%    MPKI:0.00
PC:17d84     Total:115528      MisBP:0   MisRate:0.00%    MPKI:0.00
PC:40e70     Total:501      MisBP:0   MisRate:0.00%    MPKI:0.00
PC:1cdc6     Total:12238      MisBP:0   MisRate:0.00%    MPKI:0.00
PC:15bf6     Total:21545      MisBP:0   MisRate:0.00%    MPKI:0.00
PC:3ece2     Total:6097      MisBP:0   MisRate:0.00%    MPKI:0.00
PC:15bf2     Total:21545      MisBP:0   MisRate:0.00%    MPKI:0.00
PC:3ecde     Total:6097      MisBP:0   MisRate:0.00%    MPKI:0.00
PC:15bee     Total:21545      MisBP:0   MisRate:0.00%    MPKI:0.00
PC:3ecda     Total:6097      MisBP:0   MisRate:0.00%    MPKI:0.00
PC:17702     Total:705      MisBP:0   MisRate:0.00%    MPKI:0.00
PC:40e74     Total:359      MisBP:0   MisRate:0.00%    MPKI:0.00
PC:3ff8a     Total:14397      MisBP:0   MisRate:0.00%    MPKI:0.00
PC:1cdbc     Total:19630      MisBP:0   MisRate:0.00%    MPKI:0.00
PC:31632     Total:320      MisBP:0   MisRate:0.00%    MPKI:0.00
PC:15bec     Total:21546      MisBP:0   MisRate:0.00%    MPKI:0.00
PC:beffd954     Total:1      MisBP:0   MisRate:0.00%    MPKI:0.00
PC:1ac2e     Total:202548      MisBP:0   MisRate:0.00%    MPKI:0.00
PC:2f4a4     Total:12      MisBP:0   MisRate:0.00%    MPKI:0.00
PC:72a32     Total:951      MisBP:0   MisRate:0.00%    MPKI:0.00
PC:3ff88     Total:14399      MisBP:0   MisRate:0.00%    MPKI:0.00
PC:16e9c     Total:1191      MisBP:0   MisRate:0.00%    MPKI:0.00
PC:1cdba     Total:19630      MisBP:0   MisRate:0.00%    MPKI:0.00
PC:3ecd6     Total:6302      MisBP:0   MisRate:0.00%    MPKI:0.00
PC:1ac2c     Total:202550      MisBP:0   MisRate:0.00%    MPKI:0.00
PC:3dc5c     Total:4874      MisBP:0   MisRate:0.00%    MPKI:0.00
PC:47e7e     Total:2270      MisBP:0   MisRate:0.00%    MPKI:0.00
PC:3ff9c     Total:13700      MisBP:0   MisRate:0.00%    MPKI:0.00
PC:beffd968     Total:1      MisBP:0   MisRate:0.00%    MPKI:0.00
PC:24cc6     Total:588175      MisBP:0   MisRate:0.00%    MPKI:0.00
PC:1ac42     Total:172282      MisBP:0   MisRate:0.00%    MPKI:0.00
PC:1b7fe     Total:30307      MisBP:0   MisRate:0.00%    MPKI:0.00
PC:16144     Total:12319      MisBP:0   MisRate:0.00%    MPKI:0.00
PC:3f230     Total:1618      MisBP:0   MisRate:0.00%    MPKI:0.00
PC:7cb92     Total:4      MisBP:0   MisRate:0.00%    MPKI:0.00
PC:16128     Total:32990      MisBP:0   MisRate:0.00%    MPKI:0.00
PC:3f214     Total:1497      MisBP:0   MisRate:0.00%    MPKI:0.00
PC:158c4     Total:117016      MisBP:0   MisRate:0.00%    MPKI:0.00
PC:1679e     Total:9143      MisBP:0   MisRate:0.00%    MPKI:0.00
PC:3e9ae     Total:4785      MisBP:0   MisRate:0.00%    MPKI:0.00
PC:1b7e0     Total:875      MisBP:0   MisRate:0.00%    MPKI:0.00
PC:17714     Total:107      MisBP:0   MisRate:0.00%    MPKI:0.00
PC:72a46     Total:984      MisBP:0   MisRate:0.00%    MPKI:0.00
PC:15be8     Total:58742      MisBP:0   MisRate:0.00%    MPKI:0.00
PC:16eb0     Total:1190      MisBP:0   MisRate:0.00%    MPKI:0.00
PC:40614     Total:1032      MisBP:0   MisRate:0.00%    MPKI:0.00
PC:17d8c     Total:113206      MisBP:0   MisRate:0.00%    MPKI:0.00
PC:40e78     Total:359      MisBP:0   MisRate:0.00%    MPKI:0.00
PC:1cdce     Total:12237      MisBP:0   MisRate:0.00%    MPKI:0.00
PC:31644     Total:271      MisBP:0   MisRate:0.00%    MPKI:0.00
PC:15bfe     Total:20951      MisBP:0   MisRate:0.00%    MPKI:0.00
PC:24cc4     Total:196104      MisBP:0   MisRate:0.00%    MPKI:0.00
PC:17710     Total:704      MisBP:0   MisRate:0.00%    MPKI:0.00
PC:407fc     Total:43755      MisBP:0   MisRate:0.00%    MPKI:0.00
PC:72a42     Total:934      MisBP:0   MisRate:0.00%    MPKI:0.00
PC:3ff98     Total:13700      MisBP:0   MisRate:0.00%    MPKI:0.00
PC:40610     Total:1032      MisBP:0   MisRate:0.00%    MPKI:0.00
PC:17d88     Total:921777      MisBP:0   MisRate:0.00%    MPKI:0.00
PC:335f4     Total:173      MisBP:0   MisRate:0.00%    MPKI:0.00
PC:1cdae     Total:20526      MisBP:0   MisRate:0.00%    MPKI:0.00
PC:15bde     Total:1938      MisBP:0   MisRate:0.00%    MPKI:0.00
PC:3ecca     Total:6302      MisBP:0   MisRate:0.00%    MPKI:0.00
PC:3dc50     Total:4747      MisBP:0   MisRate:0.00%    MPKI:0.00
PC:47e72     Total:2270      MisBP:0   MisRate:0.00%    MPKI:0.00
PC:335fc     Total:165      MisBP:0   MisRate:0.00%    MPKI:0.00
PC:3ecc6     Total:6302      MisBP:0   MisRate:0.00%    MPKI:0.00
PC:1ac1c     Total:209619      MisBP:0   MisRate:0.00%    MPKI:0.00
PC:3dc4c     Total:4747      MisBP:0   MisRate:0.00%    MPKI:0.00
PC:47e6e     Total:2299      MisBP:0   MisRate:0.00%    MPKI:0.00
PC:335f8     Total:168      MisBP:0   MisRate:0.00%    MPKI:0.00
PC:15bd6     Total:20747      MisBP:0   MisRate:0.00%    MPKI:0.00
PC:3ecc2     Total:6302      MisBP:0   MisRate:0.00%    MPKI:0.00
PC:3dc48     Total:4747      MisBP:0   MisRate:0.00%    MPKI:0.00
PC:47e6a     Total:2299      MisBP:0   MisRate:0.00%    MPKI:0.00
PC:335fe     Total:165      MisBP:0   MisRate:0.00%    MPKI:0.00
PC:3ecbe     Total:6302      MisBP:0   MisRate:0.00%    MPKI:0.00
PC:3ff6e     Total:13778      MisBP:0   MisRate:0.00%    MPKI:0.00
PC:16e82     Total:2400      MisBP:0   MisRate:0.00%    MPKI:0.00
PC:1cda0     Total:211693      MisBP:0   MisRate:0.00%    MPKI:0.00
PC:31616     Total:2      MisBP:0   MisRate:0.00%    MPKI:0.00
PC:15bd0     Total:35719      MisBP:0   MisRate:0.00%    MPKI:0.00
PC:3ecbc     Total:6803      MisBP:0   MisRate:0.00%    MPKI:0.00
PC:3dc42     Total:4747      MisBP:0   MisRate:0.00%    MPKI:0.00
PC:335ee     Total:174      MisBP:0   MisRate:0.00%    MPKI:0.00
PC:15bce     Total:35719      MisBP:0   MisRate:0.00%    MPKI:0.00
PC:3dc40     Total:4747      MisBP:0   MisRate:0.00%    MPKI:0.00
PC:47e62     Total:6855      MisBP:0   MisRate:0.00%    MPKI:0.00
PC:335ec     Total:174      MisBP:0   MisRate:0.00%    MPKI:0.00
PC:15bca     Total:35719      MisBP:0   MisRate:0.00%    MPKI:0.00
PC:15be4     Total:1938      MisBP:0   MisRate:0.00%    MPKI:0.00
PC:beffd950     Total:1      MisBP:0   MisRate:0.00%    MPKI:0.00
PC:1ac2a     Total:202553      MisBP:0   MisRate:0.00%    MPKI:0.00
PC:2f4a0     Total:12      MisBP:0   MisRate:0.00%    MPKI:0.00
PC:3dc5a     Total:4874      MisBP:0   MisRate:0.00%    MPKI:0.00
PC:47e7c     Total:2270      MisBP:0   MisRate:0.00%    MPKI:0.00
PC:33606     Total:126      MisBP:0   MisRate:0.00%    MPKI:0.00
PC:72a2e     Total:952      MisBP:0   MisRate:0.00%    MPKI:0.00
PC:3ff84     Total:12393      MisBP:0   MisRate:0.00%    MPKI:0.00
PC:16e98     Total:1191      MisBP:0   MisRate:0.00%    MPKI:0.00
PC:1cdb6     Total:19630      MisBP:0   MisRate:0.00%    MPKI:0.00
PC:3162c     Total:2      MisBP:0   MisRate:0.00%    MPKI:0.00
PC:15be6     Total:58742      MisBP:0   MisRate:0.00%    MPKI:0.00
PC:3ecd2     Total:6302      MisBP:0   MisRate:0.00%    MPKI:0.00
PC:1cdb4     Total:20524      MisBP:0   MisRate:0.00%    MPKI:0.00
PC:3162a     Total:2      MisBP:0   MisRate:0.00%    MPKI:0.00
PC:3ecec     Total:15440      MisBP:0   MisRate:0.00%    MPKI:0.00
PC:beffd94c     Total:1      MisBP:0   MisRate:0.00%    MPKI:0.00
PC:3dc56     Total:4726      MisBP:0   MisRate:0.00%    MPKI:0.00
PC:47e78     Total:2270      MisBP:0   MisRate:0.00%    MPKI:0.00
PC:33602     Total:126      MisBP:0   MisRate:0.00%    MPKI:0.00
PC:15be2     Total:1938      MisBP:0   MisRate:0.00%    MPKI:0.00
PC:3ecce     Total:6302      MisBP:0   MisRate:0.00%    MPKI:0.00
PC:1ac24     Total:202556      MisBP:0   MisRate:0.00%    MPKI:0.00
PC:3dc54     Total:4726      MisBP:0   MisRate:0.00%    MPKI:0.00
PC:47e76     Total:2270      MisBP:0   MisRate:0.00%    MPKI:0.00
PC:33600     Total:126      MisBP:0   MisRate:0.00%    MPKI:0.00
PC:15be0     Total:1938      MisBP:0   MisRate:0.00%    MPKI:0.00
PC:beffd948     Total:1      MisBP:0   MisRate:0.00%    MPKI:0.00
PC:3dc52     Total:4726      MisBP:0   MisRate:0.00%    MPKI:0.00
PC:47e74     Total:2270      MisBP:0   MisRate:0.00%    MPKI:0.00
PC:3ffc2     Total:23730      MisBP:0   MisRate:0.00%    MPKI:0.00
PC:15c2e     Total:3614      MisBP:0   MisRate:0.00%    MPKI:0.00
PC:3ed1a     Total:14622      MisBP:0   MisRate:0.00%    MPKI:0.00
PC:24cf4     Total:150352      MisBP:0   MisRate:0.00%    MPKI:0.00
PC:1ac70     Total:9088      MisBP:0   MisRate:0.00%    MPKI:0.00
PC:33a7e     Total:74      MisBP:0   MisRate:0.00%    MPKI:0.00
PC:3dca0     Total:728      MisBP:0   MisRate:0.00%    MPKI:0.00
PC:1f63a     Total:238      MisBP:0   MisRate:0.00%    MPKI:0.00
PC:47ec2     Total:2790      MisBP:0   MisRate:0.00%    MPKI:0.00
PC:15c2a     Total:3614      MisBP:0   MisRate:0.00%    MPKI:0.00
PC:3ed16     Total:14623      MisBP:0   MisRate:0.00%    MPKI:0.00
PC:24cf0     Total:300732      MisBP:0   MisRate:0.00%    MPKI:0.00
PC:1ac6c     Total:9088      MisBP:0   MisRate:0.00%    MPKI:0.00
PC:15c26     Total:3614      MisBP:0   MisRate:0.00%    MPKI:0.00
PC:3ed12     Total:14623      MisBP:0   MisRate:0.00%    MPKI:0.00
PC:1ac68     Total:9088      MisBP:0   MisRate:0.00%    MPKI:0.00
PC:40ea8     Total:202070      MisBP:0   MisRate:0.00%    MPKI:0.00
PC:16ed6     Total:28386      MisBP:0   MisRate:0.00%    MPKI:0.00
PC:4063a     Total:3295      MisBP:0   MisRate:0.00%    MPKI:0.00
PC:17db2     Total:67413      MisBP:0   MisRate:0.00%    MPKI:0.00
PC:40e9e     Total:97      MisBP:0   MisRate:0.00%    MPKI:0.00
PC:1cdf4     Total:10248      MisBP:0   MisRate:0.00%    MPKI:0.00
PC:3166a     Total:105      MisBP:0   MisRate:0.00%    MPKI:0.00
PC:15c24     Total:3614      MisBP:0   MisRate:0.00%    MPKI:0.00
PC:3ed10     Total:14727      MisBP:0   MisRate:0.00%    MPKI:0.00
PC:24cea     Total:150039      MisBP:0   MisRate:0.00%    MPKI:0.00
PC:3ffbe     Total:24951      MisBP:0   MisRate:0.00%    MPKI:0.00
PC:40636     Total:3296      MisBP:0   MisRate:0.00%    MPKI:0.00
PC:17dae     Total:102556      MisBP:0   MisRate:0.00%    MPKI:0.00
PC:1cdf0     Total:10249      MisBP:0   MisRate:0.00%    MPKI:0.00
PC:31666     Total:105      MisBP:0   MisRate:0.00%    MPKI:0.00
PC:16290     Total:27400      MisBP:0   MisRate:0.00%    MPKI:0.00
PC:3f8ac     Total:30      MisBP:0   MisRate:0.00%    MPKI:0.00
PC:3eb46     Total:878      MisBP:0   MisRate:0.00%    MPKI:0.00
PC:162be     Total:18937      MisBP:0   MisRate:0.00%    MPKI:0.00
PC:15a56     Total:85241      MisBP:0   MisRate:0.00%    MPKI:0.00
PC:162ba     Total:18937      MisBP:0   MisRate:0.00%    MPKI:0.00
PC:7cd08     Total:10      MisBP:0   MisRate:0.00%    MPKI:0.00
PC:3f3a6     Total:6      MisBP:0   MisRate:0.00%    MPKI:0.00
PC:7cd04     Total:10      MisBP:0   MisRate:0.00%    MPKI:0.00
PC:3f3a2     Total:2      MisBP:0   MisRate:0.00%    MPKI:0.00
PC:3eb3c     Total:246      MisBP:0   MisRate:0.00%    MPKI:0.00
PC:15a50     Total:87764      MisBP:0   MisRate:0.00%    MPKI:0.00
PC:162b4     Total:26024      MisBP:0   MisRate:0.00%    MPKI:0.00
PC:3f3a0     Total:2      MisBP:0   MisRate:0.00%    MPKI:0.00
PC:1629e     Total:26867      MisBP:0   MisRate:0.00%    MPKI:0.00
PC:3f386     Total:5      MisBP:0   MisRate:0.00%    MPKI:0.00
PC:15c20     Total:3614      MisBP:0   MisRate:0.00%    MPKI:0.00
PC:3f37c     Total:7      MisBP:0   MisRate:0.00%    MPKI:0.00
PC:1628a     Total:29674      MisBP:0   MisRate:0.00%    MPKI:0.00
PC:3f376     Total:1      MisBP:0   MisRate:0.00%    MPKI:0.00
PC:16282     Total:29671      MisBP:0   MisRate:0.00%    MPKI:0.00
PC:1627c     Total:31967      MisBP:0   MisRate:0.00%    MPKI:0.00
PC:16276     Total:31957      MisBP:0   MisRate:0.00%    MPKI:0.00
PC:3f362     Total:1302      MisBP:0   MisRate:0.00%    MPKI:0.00
PC:15c34     Total:3429      MisBP:0   MisRate:0.00%    MPKI:0.00
PC:3ed20     Total:14622      MisBP:0   MisRate:0.00%    MPKI:0.00
PC:24cfa     Total:68774      MisBP:0   MisRate:0.00%    MPKI:0.00
PC:3ffcc     Total:24015      MisBP:0   MisRate:0.00%    MPKI:0.00
PC:16ee0     Total:27851      MisBP:0   MisRate:0.00%    MPKI:0.00
PC:40644     Total:5120      MisBP:0   MisRate:0.00%    MPKI:0.00
PC:17dbc     Total:67404      MisBP:0   MisRate:0.00%    MPKI:0.00
PC:40e82     Total:264      MisBP:0   MisRate:0.00%    MPKI:0.00
PC:40626     Total:3412      MisBP:0   MisRate:0.00%    MPKI:0.00
PC:17d9e     Total:109926      MisBP:0   MisRate:0.00%    MPKI:0.00
PC:40e8a     Total:100      MisBP:0   MisRate:0.00%    MPKI:0.00
PC:beffd978     Total:2      MisBP:0   MisRate:0.00%    MPKI:0.00
PC:24cd6     Total:157174      MisBP:0   MisRate:0.00%    MPKI:0.00
PC:1ac52     Total:9509      MisBP:0   MisRate:0.00%    MPKI:0.00
PC:15c0e     Total:18791      MisBP:0   MisRate:0.00%    MPKI:0.00
PC:3ecfa     Total:15396      MisBP:0   MisRate:0.00%    MPKI:0.00
PC:1cdda     Total:11219      MisBP:0   MisRate:0.00%    MPKI:0.00
PC:15c0a     Total:18791      MisBP:0   MisRate:0.00%    MPKI:0.00
PC:3ecf6     Total:15396      MisBP:0   MisRate:0.00%    MPKI:0.00
PC:24cd0     Total:7610      MisBP:0   MisRate:0.00%    MPKI:0.00
PC:1771e     Total:16      MisBP:0   MisRate:0.00%    MPKI:0.00
PC:4080a     Total:29316      MisBP:0   MisRate:0.00%    MPKI:0.00
PC:17d96     Total:113194      MisBP:0   MisRate:0.00%    MPKI:0.00
PC:16ec2     Total:28386      MisBP:0   MisRate:0.00%    MPKI:0.00
PC:15c08     Total:18791      MisBP:0   MisRate:0.00%    MPKI:0.00
PC:3ecf4     Total:15396      MisBP:0   MisRate:0.00%    MPKI:0.00
PC:beffd970     Total:1      MisBP:0   MisRate:0.00%    MPKI:0.00
PC:24cce     Total:15710      MisBP:0   MisRate:0.00%    MPKI:0.00
PC:1ac4a     Total:172278      MisBP:0   MisRate:0.00%    MPKI:0.00
PC:15c04     Total:18792      MisBP:0   MisRate:0.00%    MPKI:0.00
PC:3ecf0     Total:15308      MisBP:0   MisRate:0.00%    MPKI:0.00
PC:beffd96c     Total:1      MisBP:0   MisRate:0.00%    MPKI:0.00
PC:24cca     Total:170781      MisBP:0   MisRate:0.00%    MPKI:0.00
PC:17716     Total:107      MisBP:0   MisRate:0.00%    MPKI:0.00
PC:40802     Total:29317      MisBP:0   MisRate:0.00%    MPKI:0.00
PC:1cdd0     Total:12237      MisBP:0   MisRate:0.00%    MPKI:0.00
PC:31646     Total:271      MisBP:0   MisRate:0.00%    MPKI:0.00
PC:15c00     Total:18792      MisBP:0   MisRate:0.00%    MPKI:0.00
PC:3ed04     Total:14465      MisBP:0   MisRate:0.00%    MPKI:0.00
PC:3ed0c     Total:14727      MisBP:0   MisRate:0.00%    MPKI:0.00
PC:24ce6     Total:157390      MisBP:0   MisRate:0.00%    MPKI:0.00
PC:3ffba     Total:25033      MisBP:0   MisRate:0.00%    MPKI:0.00
PC:17daa     Total:109881      MisBP:0   MisRate:0.00%    MPKI:0.00
PC:40e96     Total:97      MisBP:0   MisRate:0.00%    MPKI:0.00
PC:1cdec     Total:11213      MisBP:0   MisRate:0.00%    MPKI:0.00
PC:31662     Total:163      MisBP:0   MisRate:0.00%    MPKI:0.00
PC:15c1c     Total:3614      MisBP:0   MisRate:0.00%    MPKI:0.00
PC:3ed08     Total:14465      MisBP:0   MisRate:0.00%    MPKI:0.00
PC:24ce2     Total:157392      MisBP:0   MisRate:0.00%    MPKI:0.00
PC:3ffb6     Total:25089      MisBP:0   MisRate:0.00%    MPKI:0.00
PC:17da6     Total:109884      MisBP:0   MisRate:0.00%    MPKI:0.00
PC:40e92     Total:100      MisBP:0   MisRate:0.00%    MPKI:0.00
PC:1cde8     Total:11213      MisBP:0   MisRate:0.00%    MPKI:0.00
PC:15c18     Total:3613      MisBP:0   MisRate:0.00%    MPKI:0.00
PC:14e60     Total:258718      MisBP:0   MisRate:0.00%    MPKI:0.00
PC:24cde     Total:157427      MisBP:0   MisRate:0.00%    MPKI:0.00
PC:3ffb2     Total:27828      MisBP:0   MisRate:0.00%    MPKI:0.00
PC:4062a     Total:3402      MisBP:0   MisRate:0.00%    MPKI:0.00
PC:17da2     Total:109885      MisBP:0   MisRate:0.00%    MPKI:0.00
PC:40e8e     Total:100      MisBP:0   MisRate:0.00%    MPKI:0.00
PC:15c14     Total:3700      MisBP:0   MisRate:0.00%    MPKI:0.00
PC:3ed00     Total:14465      MisBP:0   MisRate:0.00%    MPKI:0.00
PC:beffd97c     Total:2      MisBP:0   MisRate:0.00%    MPKI:0.00
PC:15c12     Total:3700      MisBP:0   MisRate:0.00%    MPKI:0.00
PC:3ecfe     Total:15396      MisBP:0   MisRate:0.00%    MPKI:0.00
PC:24cd8     Total:157173      MisBP:0   MisRate:0.00%    MPKI:0.00
PC:1ac54     Total:9089      MisBP:0   MisRate:0.00%    MPKI:0.00
PC:17726     Total:16      MisBP:0   MisRate:0.00%    MPKI:0.00
PC:3ffae     Total:27828      MisBP:0   MisRate:0.00%    MPKI:0.00
PC:3c800     Total:113390      MisBP:0   MisRate:0.00%    MPKI:0.00
PC:2deb8     Total:2      MisBP:0   MisRate:0.00%    MPKI:0.00
PC:3c80c     Total:106678      MisBP:0   MisRate:0.00%    MPKI:0.00
PC:3c80a     Total:106678      MisBP:0   MisRate:0.00%    MPKI:0.00
PC:41ec4     Total:14      MisBP:0   MisRate:0.00%    MPKI:0.00
PC:18dd8     Total:72028      MisBP:0   MisRate:0.00%    MPKI:0.00
PC:1963c     Total:60054      MisBP:0   MisRate:0.00%    MPKI:0.00
PC:3c808     Total:106678      MisBP:0   MisRate:0.00%    MPKI:0.00
PC:3c806     Total:106678      MisBP:0   MisRate:0.00%    MPKI:0.00
PC:7a168     Total:72      MisBP:0   MisRate:0.00%    MPKI:0.00
PC:19638     Total:60054      MisBP:0   MisRate:0.00%    MPKI:0.00
PC:2deae     Total:2      MisBP:0   MisRate:0.00%    MPKI:0.00
PC:7a166     Total:18      MisBP:0   MisRate:0.00%    MPKI:0.00
PC:19636     Total:60054      MisBP:0   MisRate:0.00%    MPKI:0.00
PC:3c802     Total:113390      MisBP:0   MisRate:0.00%    MPKI:0.00
PC:7a164     Total:18      MisBP:0   MisRate:0.00%    MPKI:0.00
PC:19642     Total:53008      MisBP:0   MisRate:0.00%    MPKI:0.00
PC:7a162     Total:18      MisBP:0   MisRate:0.00%    MPKI:0.00
PC:2da76     Total:86      MisBP:0   MisRate:0.00%    MPKI:0.00
PC:422ec     Total:5      MisBP:0   MisRate:0.00%    MPKI:0.00
PC:3c7fe     Total:17117      MisBP:0   MisRate:0.00%    MPKI:0.00
PC:7a160     Total:18      MisBP:0   MisRate:0.00%    MPKI:0.00
PC:3c7fc     Total:17117      MisBP:0   MisRate:0.00%    MPKI:0.00
PC:2da72     Total:86      MisBP:0   MisRate:0.00%    MPKI:0.00
PC:422e8     Total:8      MisBP:0   MisRate:0.00%    MPKI:0.00
PC:3c7fa     Total:17117      MisBP:0   MisRate:0.00%    MPKI:0.00
PC:7a15c     Total:12      MisBP:0   MisRate:0.00%    MPKI:0.00
PC:41eb4     Total:166      MisBP:0   MisRate:0.00%    MPKI:0.00
PC:18dc8     Total:72029      MisBP:0   MisRate:0.00%    MPKI:0.00
PC:1962c     Total:62382      MisBP:0   MisRate:0.00%    MPKI:0.00
PC:2dea2     Total:20      MisBP:0   MisRate:0.00%    MPKI:0.00
PC:3c7f8     Total:17208      MisBP:0   MisRate:0.00%    MPKI:0.00
PC:99040     Total:40      MisBP:0   MisRate:0.00%    MPKI:0.00
PC:41ed4     Total:2      MisBP:0   MisRate:0.00%    MPKI:0.00
PC:18de8     Total:60190      MisBP:0   MisRate:0.00%    MPKI:0.00
PC:2d65e     Total:163      MisBP:0   MisRate:0.00%    MPKI:0.00
PC:1964c     Total:65019      MisBP:0   MisRate:0.00%    MPKI:0.00
PC:2dec2     Total:13      MisBP:0   MisRate:0.00%    MPKI:0.00
PC:325f6     Total:59      MisBP:0   MisRate:0.00%    MPKI:0.00
PC:99044     Total:40      MisBP:0   MisRate:0.00%    MPKI:0.00
PC:3c818     Total:105854      MisBP:0   MisRate:0.00%    MPKI:0.00
PC:2da8e     Total:85      MisBP:0   MisRate:0.00%    MPKI:0.00
PC:42304     Total:9      MisBP:0   MisRate:0.00%    MPKI:0.00
PC:1964a     Total:45001      MisBP:0   MisRate:0.00%    MPKI:0.00
PC:325f4     Total:59      MisBP:0   MisRate:0.00%    MPKI:0.00
PC:99042     Total:40      MisBP:0   MisRate:0.00%    MPKI:0.00
PC:3c816     Total:105857      MisBP:0   MisRate:0.00%    MPKI:0.00
PC:325f2     Total:59      MisBP:0   MisRate:0.00%    MPKI:0.00
PC:7a15a     Total:12      MisBP:0   MisRate:0.00%    MPKI:0.00
PC:3c814     Total:105857      MisBP:0   MisRate:0.00%    MPKI:0.00
PC:2da8a     Total:85      MisBP:0   MisRate:0.00%    MPKI:0.00
PC:41ece     Total:2      MisBP:0   MisRate:0.00%    MPKI:0.00
PC:18de2     Total:60190      MisBP:0   MisRate:0.00%    MPKI:0.00
PC:3c812     Total:105857      MisBP:0   MisRate:0.00%    MPKI:0.00
PC:2da88     Total:85      MisBP:0   MisRate:0.00%    MPKI:0.00
PC:422fe     Total:5      MisBP:0   MisRate:0.00%    MPKI:0.00
PC:41ecc     Total:2      MisBP:0   MisRate:0.00%    MPKI:0.00
PC:2d656     Total:159      MisBP:0   MisRate:0.00%    MPKI:0.00
PC:19644     Total:53008      MisBP:0   MisRate:0.00%    MPKI:0.00
PC:2deba     Total:2      MisBP:0   MisRate:0.00%    MPKI:0.00
PC:325ee     Total:59      MisBP:0   MisRate:0.00%    MPKI:0.00
PC:9903c     Total:72      MisBP:0   MisRate:0.00%    MPKI:0.00
PC:3c810     Total:106678      MisBP:0   MisRate:0.00%    MPKI:0.00
PC:7a13a     Total:34      MisBP:0   MisRate:0.00%    MPKI:0.00
PC:2da56     Total:108      MisBP:0   MisRate:0.00%    MPKI:0.00
PC:19612     Total:365838      MisBP:0   MisRate:0.00%    MPKI:0.00
PC:325bc     Total:181      MisBP:0   MisRate:0.00%    MPKI:0.00
PC:9900a     Total:19      MisBP:0   MisRate:0.00%    MPKI:0.00
PC:3c7de     Total:97547      MisBP:0   MisRate:0.00%    MPKI:0.00
PC:325ba     Total:181      MisBP:0   MisRate:0.00%    MPKI:0.00
PC:99008     Total:19      MisBP:0   MisRate:0.00%    MPKI:0.00
PC:3c7dc     Total:97547      MisBP:0   MisRate:0.00%    MPKI:0.00
PC:7a13e     Total:31      MisBP:0   MisRate:0.00%    MPKI:0.00
PC:99006     Total:19      MisBP:0   MisRate:0.00%    MPKI:0.00
PC:3c7da     Total:97547      MisBP:0   MisRate:0.00%    MPKI:0.00
PC:7a13c     Total:34      MisBP:0   MisRate:0.00%    MPKI:0.00
PC:325b6     Total:194      MisBP:0   MisRate:0.00%    MPKI:0.00
PC:99004     Total:19      MisBP:0   MisRate:0.00%    MPKI:0.00
PC:3c7d8     Total:98318      MisBP:0   MisRate:0.00%    MPKI:0.00
PC:7a142     Total:31      MisBP:0   MisRate:0.00%    MPKI:0.00
PC:3c7d6     Total:98318      MisBP:0   MisRate:0.00%    MPKI:0.00
PC:325b2     Total:194      MisBP:0   MisRate:0.00%    MPKI:0.00
PC:99000     Total:19      MisBP:0   MisRate:0.00%    MPKI:0.00
PC:3c7d4     Total:98318      MisBP:0   MisRate:0.00%    MPKI:0.00
PC:7a136     Total:34      MisBP:0   MisRate:0.00%    MPKI:0.00
PC:325ae     Total:194      MisBP:0   MisRate:0.00%    MPKI:0.00
PC:98ffc     Total:24      MisBP:0   MisRate:0.00%    MPKI:0.00
PC:3c7d0     Total:98534      MisBP:0   MisRate:0.00%    MPKI:0.00
PC:7a132     Total:34      MisBP:0   MisRate:0.00%    MPKI:0.00
PC:3c7ce     Total:92735      MisBP:0   MisRate:0.00%    MPKI:0.00
PC:325aa     Total:200      MisBP:0   MisRate:0.00%    MPKI:0.00
PC:98ff8     Total:24      MisBP:0   MisRate:0.00%    MPKI:0.00
PC:3c7cc     Total:92736      MisBP:0   MisRate:0.00%    MPKI:0.00
PC:7a12e     Total:34      MisBP:0   MisRate:0.00%    MPKI:0.00
PC:3c7e8     Total:65632      MisBP:0   MisRate:0.00%    MPKI:0.00
PC:3c7f4     Total:17229      MisBP:0   MisRate:0.00%    MPKI:0.00
PC:7a156     Total:13      MisBP:0   MisRate:0.00%    MPKI:0.00
PC:3c7f0     Total:17229      MisBP:0   MisRate:0.00%    MPKI:0.00
PC:7a152     Total:18      MisBP:0   MisRate:0.00%    MPKI:0.00
PC:2da64     Total:108      MisBP:0   MisRate:0.00%    MPKI:0.00
PC:422da     Total:9      MisBP:0   MisRate:0.00%    MPKI:0.00
PC:19620     Total:62391      MisBP:0   MisRate:0.00%    MPKI:0.00
PC:2de96     Total:6      MisBP:0   MisRate:0.00%    MPKI:0.00
PC:3c7ec     Total:65568      MisBP:0   MisRate:0.00%    MPKI:0.00
PC:7a14e     Total:31      MisBP:0   MisRate:0.00%    MPKI:0.00
PC:3c7ea     Total:65632      MisBP:0   MisRate:0.00%    MPKI:0.00
PC:7a14c     Total:31      MisBP:0   MisRate:0.00%    MPKI:0.00
PC:2da60     Total:108      MisBP:0   MisRate:0.00%    MPKI:0.00
PC:1961c     Total:62395      MisBP:0   MisRate:0.00%    MPKI:0.00
PC:2de92     Total:6      MisBP:0   MisRate:0.00%    MPKI:0.00
PC:1921a     Total:509      MisBP:0   MisRate:0.00%    MPKI:0.00
PC:3c7e6     Total:65632      MisBP:0   MisRate:0.00%    MPKI:0.00
PC:7a148     Total:31      MisBP:0   MisRate:0.00%    MPKI:0.00
PC:2da5c     Total:108      MisBP:0   MisRate:0.00%    MPKI:0.00
PC:191e6     Total:883      MisBP:0   MisRate:0.00%    MPKI:0.00
PC:422d2     Total:8      MisBP:0   MisRate:0.00%    MPKI:0.00
PC:19618     Total:62396      MisBP:0   MisRate:0.00%    MPKI:0.00
PC:2de8e     Total:6      MisBP:0   MisRate:0.00%    MPKI:0.00
PC:3c7e2     Total:56745      MisBP:0   MisRate:0.00%    MPKI:0.00
PC:2da58     Total:108      MisBP:0   MisRate:0.00%    MPKI:0.00
PC:191e2     Total:883      MisBP:0   MisRate:0.00%    MPKI:0.00
PC:422ce     Total:8      MisBP:0   MisRate:0.00%    MPKI:0.00
PC:41e9c     Total:303      MisBP:0   MisRate:0.00%    MPKI:0.00
PC:2d626     Total:23220      MisBP:0   MisRate:0.00%    MPKI:0.00
PC:18db0     Total:35      MisBP:0   MisRate:0.00%    MPKI:0.00
PC:1c17e     Total:33923      MisBP:0   MisRate:0.00%    MPKI:0.00
PC:1658e     Total:22191      MisBP:0   MisRate:0.00%    MPKI:0.00
PC:7cfdc     Total:4      MisBP:0   MisRate:0.00%    MPKI:0.00
PC:1c4a8     Total:54116      MisBP:0   MisRate:0.00%    MPKI:0.00
PC:16dee     Total:1144      MisBP:0   MisRate:0.00%    MPKI:0.00
PC:3feda     Total:27968      MisBP:0   MisRate:0.00%    MPKI:0.00
PC:3f676     Total:297      MisBP:0   MisRate:0.00%    MPKI:0.00
PC:7cfd8     Total:4      MisBP:0   MisRate:0.00%    MPKI:0.00
PC:1c1a0     Total:30264      MisBP:0   MisRate:0.00%    MPKI:0.00
PC:1c19a     Total:30269      MisBP:0   MisRate:0.00%    MPKI:0.00
PC:30a10     Total:3083      MisBP:0   MisRate:0.00%    MPKI:0.00
PC:305ce     Total:462      MisBP:0   MisRate:0.00%    MPKI:0.00
PC:1c18a     Total:31218      MisBP:0   MisRate:0.00%    MPKI:0.00
PC:30a00     Total:3093      MisBP:0   MisRate:0.00%    MPKI:0.00
PC:305ca     Total:462      MisBP:0   MisRate:0.00%    MPKI:0.00
PC:1c186     Total:31198      MisBP:0   MisRate:0.00%    MPKI:0.00
PC:3f67a     Total:297      MisBP:0   MisRate:0.00%    MPKI:0.00
PC:309f4     Total:3335      MisBP:0   MisRate:0.00%    MPKI:0.00
PC:1c174     Total:46165      MisBP:0   MisRate:0.00%    MPKI:0.00
PC:1c16e     Total:46189      MisBP:0   MisRate:0.00%    MPKI:0.00
PC:309e4     Total:3618      MisBP:0   MisRate:0.00%    MPKI:0.00
PC:1c168     Total:50256      MisBP:0   MisRate:0.00%    MPKI:0.00
PC:309de     Total:3627      MisBP:0   MisRate:0.00%    MPKI:0.00
PC:1c15a     Total:93404      MisBP:0   MisRate:0.00%    MPKI:0.00
PC:1c14a     Total:102355      MisBP:0   MisRate:0.00%    MPKI:0.00
PC:1c144     Total:102355      MisBP:0   MisRate:0.00%    MPKI:0.00
PC:3c8a4     Total:10562      MisBP:0   MisRate:0.00%    MPKI:0.00
PC:3266c     Total:58      MisBP:0   MisRate:0.00%    MPKI:0.00
PC:990ba     Total:72      MisBP:0   MisRate:0.00%    MPKI:0.00
PC:3c88e     Total:9501      MisBP:0   MisRate:0.00%    MPKI:0.00
PC:7a1f0     Total:3      MisBP:0   MisRate:0.00%    MPKI:0.00
PC:1659c     Total:19892      MisBP:0   MisRate:0.00%    MPKI:0.00
PC:7cff6     Total:248      MisBP:0   MisRate:0.00%    MPKI:0.00
PC:1c4c2     Total:23651      MisBP:0   MisRate:0.00%    MPKI:0.00
PC:16e08     Total:1032      MisBP:0   MisRate:0.00%    MPKI:0.00
PC:3fef4     Total:189      MisBP:0   MisRate:0.00%    MPKI:0.00
PC:3f690     Total:263      MisBP:0   MisRate:0.00%    MPKI:0.00
PC:165a4     Total:21324      MisBP:0   MisRate:0.00%    MPKI:0.00
PC:1c4c0     Total:23651      MisBP:0   MisRate:0.00%    MPKI:0.00
PC:3f68e     Total:263      MisBP:0   MisRate:0.00%    MPKI:0.00
PC:165a2     Total:21324      MisBP:0   MisRate:0.00%    MPKI:0.00
PC:7cff0     Total:248      MisBP:0   MisRate:0.00%    MPKI:0.00
PC:1c4be     Total:26117      MisBP:0   MisRate:0.00%    MPKI:0.00
PC:1c4ba     Total:26609      MisBP:0   MisRate:0.00%    MPKI:0.00
PC:16e00     Total:1032      MisBP:0   MisRate:0.00%    MPKI:0.00
PC:3feec     Total:189      MisBP:0   MisRate:0.00%    MPKI:0.00
PC:3f688     Total:263      MisBP:0   MisRate:0.00%    MPKI:0.00
PC:2d48c     Total:146      MisBP:0   MisRate:0.00%    MPKI:0.00
PC:7cfea     Total:255      MisBP:0   MisRate:0.00%    MPKI:0.00
PC:1c4b8     Total:26610      MisBP:0   MisRate:0.00%    MPKI:0.00
PC:1c4b4     Total:26611      MisBP:0   MisRate:0.00%    MPKI:0.00
PC:3f682     Total:263      MisBP:0   MisRate:0.00%    MPKI:0.00
PC:7cfe4     Total:1275      MisBP:0   MisRate:0.00%    MPKI:0.00
PC:1c4b0     Total:26611      MisBP:0   MisRate:0.00%    MPKI:0.00
PC:16df6     Total:1126      MisBP:0   MisRate:0.00%    MPKI:0.00
PC:3f67e     Total:263      MisBP:0   MisRate:0.00%    MPKI:0.00
PC:16592     Total:22190      MisBP:0   MisRate:0.00%    MPKI:0.00
PC:7cfe0     Total:16      MisBP:0   MisRate:0.00%    MPKI:0.00
PC:1c4ae     Total:26744      MisBP:0   MisRate:0.00%    MPKI:0.00
PC:1c4ac     Total:27057      MisBP:0   MisRate:0.00%    MPKI:0.00
PC:16df2     Total:1126      MisBP:0   MisRate:0.00%    MPKI:0.00
PC:3fede     Total:27967      MisBP:0   MisRate:0.00%    MPKI:0.00
PC:3c826     Total:119338      MisBP:0   MisRate:0.00%    MPKI:0.00
PC:19664     Total:14395      MisBP:0   MisRate:0.00%    MPKI:0.00
PC:3c830     Total:119305      MisBP:0   MisRate:0.00%    MPKI:0.00
PC:3260c     Total:59      MisBP:0   MisRate:0.00%    MPKI:0.00
PC:9905a     Total:39      MisBP:0   MisRate:0.00%    MPKI:0.00
PC:3c82e     Total:119338      MisBP:0   MisRate:0.00%    MPKI:0.00
PC:2daa4     Total:674      MisBP:0   MisRate:0.00%    MPKI:0.00
PC:4231a     Total:2      MisBP:0   MisRate:0.00%    MPKI:0.00
PC:19660     Total:14395      MisBP:0   MisRate:0.00%    MPKI:0.00
PC:2ded6     Total:378      MisBP:0   MisRate:0.00%    MPKI:0.00
PC:3c82c     Total:119338      MisBP:0   MisRate:0.00%    MPKI:0.00
PC:32608     Total:59      MisBP:0   MisRate:0.00%    MPKI:0.00
PC:3c82a     Total:119338      MisBP:0   MisRate:0.00%    MPKI:0.00
PC:2daa0     Total:807      MisBP:0   MisRate:0.00%    MPKI:0.00
PC:32604     Total:59      MisBP:0   MisRate:0.00%    MPKI:0.00
PC:99052     Total:39      MisBP:0   MisRate:0.00%    MPKI:0.00
PC:4231e     Total:2      MisBP:0   MisRate:0.00%    MPKI:0.00
PC:41ee0     Total:2      MisBP:0   MisRate:0.00%    MPKI:0.00
PC:18df4     Total:88465      MisBP:0   MisRate:0.00%    MPKI:0.00
PC:2d66a     Total:163      MisBP:0   MisRate:0.00%    MPKI:0.00
PC:19658     Total:14373      MisBP:0   MisRate:0.00%    MPKI:0.00
PC:2dece     Total:294      MisBP:0   MisRate:0.00%    MPKI:0.00
PC:3c822     Total:120054      MisBP:0   MisRate:0.00%    MPKI:0.00
PC:325fe     Total:59      MisBP:0   MisRate:0.00%    MPKI:0.00
PC:9904c     Total:40      MisBP:0   MisRate:0.00%    MPKI:0.00
PC:3c820     Total:120054      MisBP:0   MisRate:0.00%    MPKI:0.00
PC:2da96     Total:808      MisBP:0   MisRate:0.00%    MPKI:0.00
PC:4230c     Total:7      MisBP:0   MisRate:0.00%    MPKI:0.00
PC:3c81e     Total:120054      MisBP:0   MisRate:0.00%    MPKI:0.00
PC:3c81a     Total:120054      MisBP:0   MisRate:0.00%    MPKI:0.00
PC:2da90     Total:1618      MisBP:0   MisRate:0.00%    MPKI:0.00
PC:2daae     Total:674      MisBP:0   MisRate:0.00%    MPKI:0.00
PC:19048     Total:18870      MisBP:0   MisRate:0.00%    MPKI:0.00
PC:3773a4     Total:2      MisBP:0   MisRate:0.00%    MPKI:0.00
PC:42134     Total:7      MisBP:0   MisRate:0.00%    MPKI:0.00
PC:418d0     Total:1838      MisBP:0   MisRate:0.00%    MPKI:0.00
PC:187e4     Total:7513      MisBP:0   MisRate:0.00%    MPKI:0.00
PC:3261a     Total:58      MisBP:0   MisRate:0.00%    MPKI:0.00
PC:99068     Total:39      MisBP:0   MisRate:0.00%    MPKI:0.00
PC:3c83c     Total:5455      MisBP:0   MisRate:0.00%    MPKI:0.00
PC:1923c     Total:143      MisBP:0   MisRate:0.00%    MPKI:0.00
PC:42328     Total:1      MisBP:0   MisRate:0.00%    MPKI:0.00
PC:1966e     Total:14513      MisBP:0   MisRate:0.00%    MPKI:0.00
PC:2dee4     Total:4      MisBP:0   MisRate:0.00%    MPKI:0.00
PC:32616     Total:59      MisBP:0   MisRate:0.00%    MPKI:0.00
PC:99064     Total:39      MisBP:0   MisRate:0.00%    MPKI:0.00
PC:3c838     Total:5457      MisBP:0   MisRate:0.00%    MPKI:0.00
PC:3c7ca     Total:92736      MisBP:0   MisRate:0.00%    MPKI:0.00
PC:19238     Total:143      MisBP:0   MisRate:0.00%    MPKI:0.00
PC:42324     Total:2      MisBP:0   MisRate:0.00%    MPKI:0.00
PC:1966a     Total:13562      MisBP:0   MisRate:0.00%    MPKI:0.00
PC:2dee0     Total:370      MisBP:0   MisRate:0.00%    MPKI:0.00
PC:32612     Total:59      MisBP:0   MisRate:0.00%    MPKI:0.00
PC:99060     Total:39      MisBP:0   MisRate:0.00%    MPKI:0.00
PC:2daaa     Total:674      MisBP:0   MisRate:0.00%    MPKI:0.00
PC:19234     Total:143      MisBP:0   MisRate:0.00%    MPKI:0.00
PC:42320     Total:2      MisBP:0   MisRate:0.00%    MPKI:0.00
PC:2dedc     Total:370      MisBP:0   MisRate:0.00%    MPKI:0.00
PC:32610     Total:59      MisBP:0   MisRate:0.00%    MPKI:0.00
PC:3c832     Total:26760      MisBP:0   MisRate:0.00%    MPKI:0.00
PC:2daa8     Total:674      MisBP:0   MisRate:0.00%    MPKI:0.00
PC:19232     Total:2      MisBP:0   MisRate:0.00%    MPKI:0.00
PC:31eae     Total:124      MisBP:0   MisRate:0.00%    MPKI:0.00
PC:31d14     Total:61      MisBP:0   MisRate:0.00%    MPKI:0.00
PC:3bf36     Total:64384      MisBP:0   MisRate:0.00%    MPKI:0.00
PC:2cb34     Total:648      MisBP:0   MisRate:0.00%    MPKI:0.00
PC:182be     Total:2      MisBP:0   MisRate:0.00%    MPKI:0.00
PC:40f78     Total:15609      MisBP:0   MisRate:0.00%    MPKI:0.00
PC:17e8c     Total:77413      MisBP:0   MisRate:0.00%    MPKI:0.00
PC:93150     Total:264      MisBP:0   MisRate:0.00%    MPKI:0.00
PC:31d12     Total:61      MisBP:0   MisRate:0.00%    MPKI:0.00
PC:3bf34     Total:66918      MisBP:0   MisRate:0.00%    MPKI:0.00
PC:3c0d2     Total:1501      MisBP:0   MisRate:0.00%    MPKI:0.00
PC:31eb0     Total:75      MisBP:0   MisRate:0.00%    MPKI:0.00
PC:40f74     Total:15609      MisBP:0   MisRate:0.00%    MPKI:0.00
PC:17e88     Total:77413      MisBP:0   MisRate:0.00%    MPKI:0.00
PC:9314c     Total:264      MisBP:0   MisRate:0.00%    MPKI:0.00
PC:3c0d0     Total:16295      MisBP:0   MisRate:0.00%    MPKI:0.00
PC:5ffe0     Total:21      MisBP:0   MisRate:0.00%    MPKI:0.00
PC:30e96     Total:156      MisBP:0   MisRate:0.00%    MPKI:0.00
PC:1ca52     Total:218      MisBP:0   MisRate:0.00%    MPKI:0.00
PC:30e92     Total:160      MisBP:0   MisRate:0.00%    MPKI:0.00
PC:1ca4e     Total:218      MisBP:0   MisRate:0.00%    MPKI:0.00
PC:1ca4a     Total:2180      MisBP:0   MisRate:0.00%    MPKI:0.00
PC:30e8c     Total:160      MisBP:0   MisRate:0.00%    MPKI:0.00
PC:1c616     Total:4      MisBP:0   MisRate:0.00%    MPKI:0.00
PC:1ca48     Total:218      MisBP:0   MisRate:0.00%    MPKI:0.00
PC:1ca46     Total:218      MisBP:0   MisRate:0.00%    MPKI:0.00
PC:30e88     Total:160      MisBP:0   MisRate:0.00%    MPKI:0.00
PC:1c612     Total:4      MisBP:0   MisRate:0.00%    MPKI:0.00
PC:1ca44     Total:42223      MisBP:0   MisRate:0.00%    MPKI:0.00
PC:30e84     Total:160      MisBP:0   MisRate:0.00%    MPKI:0.00
PC:1c60e     Total:5      MisBP:0   MisRate:0.00%    MPKI:0.00
PC:1ca40     Total:42223      MisBP:0   MisRate:0.00%    MPKI:0.00
PC:31d1a     Total:61      MisBP:0   MisRate:0.00%    MPKI:0.00
PC:3fdda     Total:20956      MisBP:0   MisRate:0.00%    MPKI:0.00
PC:3e8d6     Total:4107      MisBP:0   MisRate:0.00%    MPKI:0.00
PC:1cdb2     Total:20526      MisBP:0   MisRate:0.00%    MPKI:0.00
PC:72a2a     Total:952      MisBP:0   MisRate:0.00%    MPKI:0.00
PC:3ff80     Total:12393      MisBP:0   MisRate:0.00%    MPKI:0.00
PC:1cdaa     Total:20535      MisBP:0   MisRate:0.00%    MPKI:0.00
PC:31620     Total:2      MisBP:0   MisRate:0.00%    MPKI:0.00
PC:31d1c     Total:60      MisBP:0   MisRate:0.00%    MPKI:0.00
PC:3bf3e     Total:64345      MisBP:0   MisRate:0.00%    MPKI:0.00
PC:2cb3c     Total:648      MisBP:0   MisRate:0.00%    MPKI:0.00
PC:17e94     Total:77411      MisBP:0   MisRate:0.00%    MPKI:0.00
PC:3c0dc     Total:1501      MisBP:0   MisRate:0.00%    MPKI:0.00
PC:31eba     Total:72      MisBP:0   MisRate:0.00%    MPKI:0.00
PC:18d6e     Total:97752      MisBP:0   MisRate:0.00%    MPKI:0.00
PC:41e5a     Total:1111      MisBP:0   MisRate:0.00%    MPKI:0.00
PC:30e80     Total:160      MisBP:0   MisRate:0.00%    MPKI:0.00
PC:3bf3c     Total:64349      MisBP:0   MisRate:0.00%    MPKI:0.00
PC:3c0da     Total:1501      MisBP:0   MisRate:0.00%    MPKI:0.00
PC:31eb8     Total:72      MisBP:0   MisRate:0.00%    MPKI:0.00
PC:31d18     Total:61      MisBP:0   MisRate:0.00%    MPKI:0.00
PC:3bf3a     Total:64377      MisBP:0   MisRate:0.00%    MPKI:0.00
PC:2cb38     Total:648      MisBP:0   MisRate:0.00%    MPKI:0.00
PC:413ae     Total:8291      MisBP:0   MisRate:0.00%    MPKI:0.00
PC:182c2     Total:2      MisBP:0   MisRate:0.00%    MPKI:0.00
PC:40f7c     Total:23964      MisBP:0   MisRate:0.00%    MPKI:0.00
PC:93154     Total:264      MisBP:0   MisRate:0.00%    MPKI:0.00
PC:3c0d6     Total:1501      MisBP:0   MisRate:0.00%    MPKI:0.00
PC:31eb4     Total:72      MisBP:0   MisRate:0.00%    MPKI:0.00
PC:2ccd2     Total:43416      MisBP:0   MisRate:0.00%    MPKI:0.00
PC:36ef4     Total:43545      MisBP:0   MisRate:0.00%    MPKI:0.00
PC:1c98c     Total:963      MisBP:0   MisRate:0.00%    MPKI:0.00
PC:1f730     Total:513      MisBP:0   MisRate:0.00%    MPKI:0.00
PC:84c84     Total:201      MisBP:0   MisRate:0.00%    MPKI:0.00
PC:3e8e2     Total:25261      MisBP:0   MisRate:0.00%    MPKI:0.00
PC:1c9b2     Total:52964      MisBP:0   MisRate:0.00%    MPKI:0.00
PC:1c9ae     Total:52964      MisBP:0   MisRate:0.00%    MPKI:0.00
PC:1c9ac     Total:2      MisBP:0   MisRate:0.00%    MPKI:0.00
PC:1c9aa     Total:2      MisBP:0   MisRate:0.00%    MPKI:0.00
PC:1c9a6     Total:2      MisBP:0   MisRate:0.00%    MPKI:0.00
PC:1c9a2     Total:2      MisBP:0   MisRate:0.00%    MPKI:0.00
PC:1c99e     Total:2      MisBP:0   MisRate:0.00%    MPKI:0.00
PC:1c99c     Total:2      MisBP:0   MisRate:0.00%    MPKI:0.00
PC:1c99a     Total:2      MisBP:0   MisRate:0.00%    MPKI:0.00
PC:1c996     Total:961      MisBP:0   MisRate:0.00%    MPKI:0.00
PC:1c994     Total:963      MisBP:0   MisRate:0.00%    MPKI:0.00
PC:1c990     Total:963      MisBP:0   MisRate:0.00%    MPKI:0.00
PC:33742     Total:21      MisBP:0   MisRate:0.00%    MPKI:0.00
PC:1c988     Total:963      MisBP:0   MisRate:0.00%    MPKI:0.00
PC:1c984     Total:964      MisBP:0   MisRate:0.00%    MPKI:0.00
PC:1c7a4     Total:107819      MisBP:0   MisRate:0.00%    MPKI:0.00
PC:1c5be     Total:23      MisBP:0   MisRate:0.00%    MPKI:0.00
PC:1c5bc     Total:23      MisBP:0   MisRate:0.00%    MPKI:0.00
PC:1c5ba     Total:23      MisBP:0   MisRate:0.00%    MPKI:0.00
PC:47926     Total:1033      MisBP:0   MisRate:0.00%    MPKI:0.00
PC:14e7c     Total:78399      MisBP:0   MisRate:0.00%    MPKI:0.00
PC:3df68     Total:94      MisBP:0   MisRate:0.00%    MPKI:0.00
PC:1c5b6     Total:24      MisBP:0   MisRate:0.00%    MPKI:0.00
PC:4791e     Total:153      MisBP:0   MisRate:0.00%    MPKI:0.00
PC:1c5ae     Total:24      MisBP:0   MisRate:0.00%    MPKI:0.00
PC:1c5aa     Total:24      MisBP:0   MisRate:0.00%    MPKI:0.00
PC:1c5a6     Total:24      MisBP:0   MisRate:0.00%    MPKI:0.00
PC:1c9f2     Total:1      MisBP:0   MisRate:0.00%    MPKI:0.00
PC:1c60a     Total:5      MisBP:0   MisRate:0.00%    MPKI:0.00
PC:1ca3c     Total:42373      MisBP:0   MisRate:0.00%    MPKI:0.00
PC:1ca38     Total:42373      MisBP:0   MisRate:0.00%    MPKI:0.00
PC:1ca34     Total:42373      MisBP:0   MisRate:0.00%    MPKI:0.00
PC:1ca30     Total:42373      MisBP:0   MisRate:0.00%    MPKI:0.00
PC:1ca2e     Total:42710      MisBP:0   MisRate:0.00%    MPKI:0.00
PC:1ca2a     Total:42710      MisBP:0   MisRate:0.00%    MPKI:0.00
PC:1ca26     Total:42710      MisBP:0   MisRate:0.00%    MPKI:0.00
PC:1ca22     Total:42710      MisBP:0   MisRate:0.00%    MPKI:0.00
PC:1ca1e     Total:48880      MisBP:0   MisRate:0.00%    MPKI:0.00
PC:1ca1c     Total:48895      MisBP:0   MisRate:0.00%    MPKI:0.00
PC:1ca18     Total:48902      MisBP:0   MisRate:0.00%    MPKI:0.00
PC:1ca14     Total:99555      MisBP:0   MisRate:0.00%    MPKI:0.00
PC:1ca10     Total:49792      MisBP:0   MisRate:0.00%    MPKI:0.00
PC:1ca0c     Total:51409      MisBP:0   MisRate:0.00%    MPKI:0.00
PC:3fde6     Total:18161      MisBP:0   MisRate:0.00%    MPKI:0.00
PC:1c9ee     Total:120      MisBP:0   MisRate:0.00%    MPKI:0.00
PC:1c9d8     Total:3629      MisBP:0   MisRate:0.00%    MPKI:0.00
PC:1c9d2     Total:3463      MisBP:0   MisRate:0.00%    MPKI:0.00
PC:1c9d0     Total:699      MisBP:0   MisRate:0.00%    MPKI:0.00
PC:1c9cc     Total:699      MisBP:0   MisRate:0.00%    MPKI:0.00
PC:1c9ca     Total:699      MisBP:0   MisRate:0.00%    MPKI:0.00
PC:1c9c4     Total:52659      MisBP:0   MisRate:0.00%    MPKI:0.00
PC:1c9c0     Total:52660      MisBP:0   MisRate:0.00%    MPKI:0.00
PC:1c9be     Total:52877      MisBP:0   MisRate:0.00%    MPKI:0.00
PC:1c9ba     Total:52877      MisBP:0   MisRate:0.00%    MPKI:0.00
PC:1c9b6     Total:52962      MisBP:0   MisRate:0.00%    MPKI:0.00
PC:1f75a     Total:240      MisBP:0   MisRate:0.00%    MPKI:0.00
PC:84cae     Total:197      MisBP:0   MisRate:0.00%    MPKI:0.00
PC:47fb8     Total:131      MisBP:0   MisRate:0.00%    MPKI:0.00
PC:7a11c     Total:4      MisBP:0   MisRate:0.00%    MPKI:0.00
PC:36cf2     Total:46      MisBP:0   MisRate:0.00%    MPKI:0.00
PC:5fdde     Total:6      MisBP:0   MisRate:0.00%    MPKI:0.00
PC:40f14     Total:184      MisBP:0   MisRate:0.00%    MPKI:0.00
PC:31e4e     Total:204      MisBP:0   MisRate:0.00%    MPKI:0.00
PC:3259c     Total:52      MisBP:0   MisRate:0.00%    MPKI:0.00
PC:98fea     Total:24      MisBP:0   MisRate:0.00%    MPKI:0.00
PC:3c7be     Total:64376      MisBP:0   MisRate:0.00%    MPKI:0.00
PC:7a120     Total:5      MisBP:0   MisRate:0.00%    MPKI:0.00
PC:3259a     Total:52      MisBP:0   MisRate:0.00%    MPKI:0.00
PC:2da32     Total:113      MisBP:0   MisRate:0.00%    MPKI:0.00
PC:422a8     Total:16      MisBP:0   MisRate:0.00%    MPKI:0.00
PC:2d600     Total:4179      MisBP:0   MisRate:0.00%    MPKI:0.00
PC:195ee     Total:4830      MisBP:0   MisRate:0.00%    MPKI:0.00
PC:2de64     Total:13      MisBP:0   MisRate:0.00%    MPKI:0.00
PC:3c7ba     Total:68526      MisBP:0   MisRate:0.00%    MPKI:0.00
PC:31e52     Total:203      MisBP:0   MisRate:0.00%    MPKI:0.00
PC:32596     Total:52      MisBP:0   MisRate:0.00%    MPKI:0.00
PC:98fe4     Total:95      MisBP:0   MisRate:0.00%    MPKI:0.00
PC:7a11a     Total:4      MisBP:0   MisRate:0.00%    MPKI:0.00
PC:2da2e     Total:118      MisBP:0   MisRate:0.00%    MPKI:0.00
PC:422a4     Total:16      MisBP:0   MisRate:0.00%    MPKI:0.00
PC:195ea     Total:4837      MisBP:0   MisRate:0.00%    MPKI:0.00
PC:2de60     Total:13      MisBP:0   MisRate:0.00%    MPKI:0.00
PC:3c7b6     Total:69815      MisBP:0   MisRate:0.00%    MPKI:0.00
PC:7a118     Total:12      MisBP:0   MisRate:0.00%    MPKI:0.00
PC:98fde     Total:95      MisBP:0   MisRate:0.00%    MPKI:0.00
PC:3258e     Total:55      MisBP:0   MisRate:0.00%    MPKI:0.00
PC:98fdc     Total:95      MisBP:0   MisRate:0.00%    MPKI:0.00
PC:3c7b0     Total:99965      MisBP:0   MisRate:0.00%    MPKI:0.00
PC:7a112     Total:6      MisBP:0   MisRate:0.00%    MPKI:0.00
PC:7a122     Total:5      MisBP:0   MisRate:0.00%    MPKI:0.00
PC:7a12c     Total:170      MisBP:0   MisRate:0.00%    MPKI:0.00
PC:325a6     Total:158      MisBP:0   MisRate:0.00%    MPKI:0.00
PC:98ff4     Total:24      MisBP:0   MisRate:0.00%    MPKI:0.00
PC:3c7c8     Total:92736      MisBP:0   MisRate:0.00%    MPKI:0.00
PC:325a4     Total:158      MisBP:0   MisRate:0.00%    MPKI:0.00
PC:98ff2     Total:24      MisBP:0   MisRate:0.00%    MPKI:0.00
PC:3c7c6     Total:57355      MisBP:0   MisRate:0.00%    MPKI:0.00
PC:7a128     Total:20      MisBP:0   MisRate:0.00%    MPKI:0.00
PC:325a2     Total:158      MisBP:0   MisRate:0.00%    MPKI:0.00
PC:98ff0     Total:24      MisBP:0   MisRate:0.00%    MPKI:0.00
PC:3c7c4     Total:57355      MisBP:0   MisRate:0.00%    MPKI:0.00
PC:7a126     Total:5      MisBP:0   MisRate:0.00%    MPKI:0.00
PC:195f6     Total:4611      MisBP:0   MisRate:0.00%    MPKI:0.00
PC:98fec     Total:24      MisBP:0   MisRate:0.00%    MPKI:0.00
PC:3c7c0     Total:57355      MisBP:0   MisRate:0.00%    MPKI:0.00
PC:2da26     Total:118      MisBP:0   MisRate:0.00%    MPKI:0.00
PC:195f2     Total:4830      MisBP:0   MisRate:0.00%    MPKI:0.00
PC:2cae8     Total:39984      MisBP:0   MisRate:0.00%    MPKI:0.00
PC:4135e     Total:12212      MisBP:0   MisRate:0.00%    MPKI:0.00
PC:18272     Total:219      MisBP:0   MisRate:0.00%    MPKI:0.00
PC:40f2c     Total:16017      MisBP:0   MisRate:0.00%    MPKI:0.00
PC:31e66     Total:234      MisBP:0   MisRate:0.00%    MPKI:0.00
PC:2cae0     Total:7987      MisBP:0   MisRate:0.00%    MPKI:0.00
PC:1826a     Total:220      MisBP:0   MisRate:0.00%    MPKI:0.00
PC:41356     Total:12      MisBP:0   MisRate:0.00%    MPKI:0.00
PC:40f24     Total:184      MisBP:0   MisRate:0.00%    MPKI:0.00
PC:36cf6     Total:45      MisBP:0   MisRate:0.00%    MPKI:0.00
PC:5fde2     Total:6      MisBP:0   MisRate:0.00%    MPKI:0.00
PC:40f18     Total:184      MisBP:0   MisRate:0.00%    MPKI:0.00
PC:17e2c     Total:19      MisBP:0   MisRate:0.00%    MPKI:0.00
PC:3fedc     Total:27967      MisBP:0   MisRate:0.00%    MPKI:0.00
PC:3ff72     Total:13778      MisBP:0   MisRate:0.00%    MPKI:0.00
PC:16e86     Total:1200      MisBP:0   MisRate:0.00%    MPKI:0.00
PC:1cda4     Total:20537      MisBP:0   MisRate:0.00%    MPKI:0.00
PC:3161a     Total:2      MisBP:0   MisRate:0.00%    MPKI:0.00
PC:3ff6a     Total:13778      MisBP:0   MisRate:0.00%    MPKI:0.00
PC:16e7e     Total:1200      MisBP:0   MisRate:0.00%    MPKI:0.00
PC:3ff60     Total:13778      MisBP:0   MisRate:0.00%    MPKI:0.00
PC:16e74     Total:2399      MisBP:0   MisRate:0.00%    MPKI:0.00
PC:3ff58     Total:17579      MisBP:0   MisRate:0.00%    MPKI:0.00
PC:92130     Total:8411      MisBP:0   MisRate:0.00%    MPKI:0.00
PC:3ff38     Total:15023      MisBP:0   MisRate:0.00%    MPKI:0.00
PC:3ea84     Total:7701      MisBP:0   MisRate:0.00%    MPKI:0.00
PC:2fcfa     Total:2958      MisBP:0   MisRate:0.00%    MPKI:0.00
PC:3c2c6     Total:8152      MisBP:0   MisRate:0.00%    MPKI:0.00
PC:2cec4     Total:4965      MisBP:0   MisRate:0.00%    MPKI:0.00
PC:16e8e     Total:1200      MisBP:0   MisRate:0.00%    MPKI:0.00
PC:3fece     Total:13263      MisBP:0   MisRate:0.00%    MPKI:0.00
PC:3fec4     Total:13280      MisBP:0   MisRate:0.00%    MPKI:0.00
PC:3feba     Total:1335      MisBP:0   MisRate:0.00%    MPKI:0.00
PC:3feb2     Total:1459      MisBP:0   MisRate:0.00%    MPKI:0.00
PC:16dc6     Total:1150      MisBP:0   MisRate:0.00%    MPKI:0.00
PC:3feaa     Total:1459      MisBP:0   MisRate:0.00%    MPKI:0.00
PC:1ccdc     Total:102567      MisBP:0   MisRate:0.00%    MPKI:0.00
PC:3fea6     Total:1459      MisBP:0   MisRate:0.00%    MPKI:0.00
PC:3fe9a     Total:1468      MisBP:0   MisRate:0.00%    MPKI:0.00
PC:1ccc8     Total:72502      MisBP:0   MisRate:0.00%    MPKI:0.00
PC:1ccb0     Total:73355      MisBP:0   MisRate:0.00%    MPKI:0.00
PC:3fe6a     Total:952      MisBP:0   MisRate:0.00%    MPKI:0.00
PC:3fe42     Total:954      MisBP:0   MisRate:0.00%    MPKI:0.00
PC:3fdf2     Total:18158      MisBP:0   MisRate:0.00%    MPKI:0.00
PC:1c420     Total:4857      MisBP:0   MisRate:0.00%    MPKI:0.00
PC:4229c     Total:17      MisBP:0   MisRate:0.00%    MPKI:0.00
PC:195e2     Total:4838      MisBP:0   MisRate:0.00%    MPKI:0.00
PC:2de58     Total:204      MisBP:0   MisRate:0.00%    MPKI:0.00
PC:1c228     Total:35751      MisBP:0   MisRate:0.00%    MPKI:0.00
PC:30a9e     Total:2      MisBP:0   MisRate:0.00%    MPKI:0.00
PC:1c224     Total:35348      MisBP:0   MisRate:0.00%    MPKI:0.00
PC:30a9a     Total:2      MisBP:0   MisRate:0.00%    MPKI:0.00
PC:1c216     Total:38502      MisBP:0   MisRate:0.00%    MPKI:0.00
PC:30a8c     Total:2      MisBP:0   MisRate:0.00%    MPKI:0.00
PC:1c20c     Total:38502      MisBP:0   MisRate:0.00%    MPKI:0.00
PC:30a82     Total:2      MisBP:0   MisRate:0.00%    MPKI:0.00
PC:1c208     Total:38502      MisBP:0   MisRate:0.00%    MPKI:0.00
PC:30a7e     Total:2      MisBP:0   MisRate:0.00%    MPKI:0.00
PC:1c424     Total:4857      MisBP:0   MisRate:0.00%    MPKI:0.00
PC:1c422     Total:4857      MisBP:0   MisRate:0.00%    MPKI:0.00
PC:3ecb6     Total:6803      MisBP:0   MisRate:0.00%    MPKI:0.00
PC:1c41e     Total:4858      MisBP:0   MisRate:0.00%    MPKI:0.00
PC:1c41c     Total:4849      MisBP:0   MisRate:0.00%    MPKI:0.00
PC:1c41a     Total:4848      MisBP:0   MisRate:0.00%    MPKI:0.00
PC:1c416     Total:4833      MisBP:0   MisRate:0.00%    MPKI:0.00
PC:1c410     Total:36421      MisBP:0   MisRate:0.00%    MPKI:0.00
PC:1c40c     Total:36421      MisBP:0   MisRate:0.00%    MPKI:0.00
PC:1c40a     Total:36421      MisBP:0   MisRate:0.00%    MPKI:0.00
PC:1c408     Total:36421      MisBP:0   MisRate:0.00%    MPKI:0.00
PC:1c406     Total:36421      MisBP:0   MisRate:0.00%    MPKI:0.00
PC:1c404     Total:36421      MisBP:0   MisRate:0.00%    MPKI:0.00
PC:3c8a6     Total:10562      MisBP:0   MisRate:0.00%    MPKI:0.00
PC:418e8     Total:4133      MisBP:0   MisRate:0.00%    MPKI:0.00
PC:1c400     Total:36112      MisBP:0   MisRate:0.00%    MPKI:0.00
PC:3ff7a     Total:13698      MisBP:0   MisRate:0.00%    MPKI:0.00
PC:2ce5c     Total:49209      MisBP:0   MisRate:0.00%    MPKI:0.00
PC:3c274     Total:12855      MisBP:0   MisRate:0.00%    MPKI:0.00
PC:2ce6c     Total:16420      MisBP:0   MisRate:0.00%    MPKI:0.00
PC:416e2     Total:396      MisBP:0   MisRate:0.00%    MPKI:0.00
PC:3722c     Total:79329      MisBP:0   MisRate:0.00%    MPKI:0.00
PC:2ce68     Total:59164      MisBP:0   MisRate:0.00%    MPKI:0.00
PC:37228     Total:79404      MisBP:0   MisRate:0.00%    MPKI:0.00
PC:2ce64     Total:59308      MisBP:0   MisRate:0.00%    MPKI:0.00
PC:416da     Total:482      MisBP:0   MisRate:0.00%    MPKI:0.00
PC:2d4dc     Total:268      MisBP:0   MisRate:0.00%    MPKI:0.00
PC:41d52     Total:2678      MisBP:0   MisRate:0.00%    MPKI:0.00
PC:19098     Total:89523      MisBP:0   MisRate:0.00%    MPKI:0.00
PC:42184     Total:1      MisBP:0   MisRate:0.00%    MPKI:0.00
PC:2ce60     Total:49209      MisBP:0   MisRate:0.00%    MPKI:0.00
PC:416d6     Total:719      MisBP:0   MisRate:0.00%    MPKI:0.00
PC:37220     Total:467442      MisBP:0   MisRate:0.00%    MPKI:0.00
PC:190ac     Total:67146      MisBP:0   MisRate:0.00%    MPKI:0.00
PC:412a0     Total:26346      MisBP:0   MisRate:0.00%    MPKI:0.00
PC:181b4     Total:4668      MisBP:0   MisRate:0.00%    MPKI:0.00
PC:93478     Total:5      MisBP:0   MisRate:0.00%    MPKI:0.00
PC:3c25c     Total:113008      MisBP:0   MisRate:0.00%    MPKI:0.00
PC:3c258     Total:226021      MisBP:0   MisRate:0.00%    MPKI:0.00
PC:2ce42     Total:29646      MisBP:0   MisRate:0.00%    MPKI:0.00
PC:416b8     Total:4157      MisBP:0   MisRate:0.00%    MPKI:0.00
PC:41286     Total:20095      MisBP:0   MisRate:0.00%    MPKI:0.00
PC:9345e     Total:5      MisBP:0   MisRate:0.00%    MPKI:0.00
PC:32022     Total:134      MisBP:0   MisRate:0.00%    MPKI:0.00
PC:3c244     Total:18623      MisBP:0   MisRate:0.00%    MPKI:0.00
PC:3c93c     Total:5364      MisBP:0   MisRate:0.00%    MPKI:0.00
PC:7a29e     Total:22      MisBP:0   MisRate:0.00%    MPKI:0.00
PC:beffb5b8     Total:1      MisBP:0   MisRate:0.00%    MPKI:0.00
PC:190f6     Total:13084      MisBP:0   MisRate:0.00%    MPKI:0.00
PC:37264     Total:138287      MisBP:0   MisRate:0.00%    MPKI:0.00
PC:421dc     Total:7      MisBP:0   MisRate:0.00%    MPKI:0.00
PC:3c2be     Total:34731      MisBP:0   MisRate:0.00%    MPKI:0.00
PC:2ceb6     Total:401      MisBP:0   MisRate:0.00%    MPKI:0.00
PC:4172c     Total:1950      MisBP:0   MisRate:0.00%    MPKI:0.00
PC:412fa     Total:31677      MisBP:0   MisRate:0.00%    MPKI:0.00
PC:2ca84     Total:70910      MisBP:0   MisRate:0.00%    MPKI:0.00
PC:3c2b8     Total:33893      MisBP:0   MisRate:0.00%    MPKI:0.00
PC:2ceb2     Total:963      MisBP:0   MisRate:0.00%    MPKI:0.00
PC:41728     Total:1950      MisBP:0   MisRate:0.00%    MPKI:0.00
PC:3c2b4     Total:33977      MisBP:0   MisRate:0.00%    MPKI:0.00
PC:412f2     Total:31760      MisBP:0   MisRate:0.00%    MPKI:0.00
PC:2ca7c     Total:82949      MisBP:0   MisRate:0.00%    MPKI:0.00
PC:190e2     Total:6113      MisBP:0   MisRate:0.00%    MPKI:0.00
PC:421ce     Total:7      MisBP:0   MisRate:0.00%    MPKI:0.00
PC:37268     Total:138266      MisBP:0   MisRate:0.00%    MPKI:0.00
PC:4197e     Total:387      MisBP:0   MisRate:0.00%    MPKI:0.00
PC:2cea0     Total:10143      MisBP:0   MisRate:0.00%    MPKI:0.00
PC:412e4     Total:32155      MisBP:0   MisRate:0.00%    MPKI:0.00
PC:181f8     Total:389      MisBP:0   MisRate:0.00%    MPKI:0.00
PC:934bc     Total:1      MisBP:0   MisRate:0.00%    MPKI:0.00
PC:4195c     Total:565      MisBP:0   MisRate:0.00%    MPKI:0.00
PC:18870     Total:21641      MisBP:0   MisRate:0.00%    MPKI:0.00
PC:190d4     Total:14023      MisBP:0   MisRate:0.00%    MPKI:0.00
PC:421c0     Total:10      MisBP:0   MisRate:0.00%    MPKI:0.00
PC:3c29c     Total:28563      MisBP:0   MisRate:0.00%    MPKI:0.00
PC:37256     Total:142232      MisBP:0   MisRate:0.00%    MPKI:0.00
PC:3724e     Total:141893      MisBP:0   MisRate:0.00%    MPKI:0.00
PC:416ee     Total:684      MisBP:0   MisRate:0.00%    MPKI:0.00
PC:2d4f0     Total:177      MisBP:0   MisRate:0.00%    MPKI:0.00
PC:41d66     Total:140      MisBP:0   MisRate:0.00%    MPKI:0.00
PC:1c59c     Total:6240      MisBP:0   MisRate:0.00%    MPKI:0.00
PC:41a90     Total:237      MisBP:0   MisRate:0.00%    MPKI:0.00
PC:2d21a     Total:17491      MisBP:0   MisRate:0.00%    MPKI:0.00
PC:14e6a     Total:91595      MisBP:0   MisRate:0.00%    MPKI:0.00
PC:1c5a4     Total:24      MisBP:0   MisRate:0.00%    MPKI:0.00
PC:28606     Total:29291      MisBP:0   MisRate:0.00%    MPKI:0.00
PC:3ce7c     Total:11413      MisBP:0   MisRate:0.00%    MPKI:0.00
PC:7a7de     Total:3      MisBP:0   MisRate:0.00%    MPKI:0.00
PC:3ca4a     Total:138825      MisBP:0   MisRate:0.00%    MPKI:0.00
PC:512c0     Total:2585      MisBP:0   MisRate:0.00%    MPKI:0.00
PC:14e66     Total:91597      MisBP:0   MisRate:0.00%    MPKI:0.00
PC:1c5a0     Total:24      MisBP:0   MisRate:0.00%    MPKI:0.00
PC:3ce78     Total:11413      MisBP:0   MisRate:0.00%    MPKI:0.00
PC:7a7da     Total:2      MisBP:0   MisRate:0.00%    MPKI:0.00
PC:3ca46     Total:138826      MisBP:0   MisRate:0.00%    MPKI:0.00
PC:512bc     Total:192913      MisBP:0   MisRate:0.00%    MPKI:0.00
PC:3ca4e     Total:138825      MisBP:0   MisRate:0.00%    MPKI:0.00
PC:3ca42     Total:138838      MisBP:0   MisRate:0.00%    MPKI:0.00
PC:512b8     Total:195226      MisBP:0   MisRate:0.00%    MPKI:0.00
PC:3ca3e     Total:138859      MisBP:0   MisRate:0.00%    MPKI:0.00
PC:3ca3a     Total:159015      MisBP:0   MisRate:0.00%    MPKI:0.00
PC:512b0     Total:495545      MisBP:0   MisRate:0.00%    MPKI:0.00
PC:1c590     Total:6759      MisBP:0   MisRate:0.00%    MPKI:0.00
PC:285f2     Total:75178      MisBP:0   MisRate:0.00%    MPKI:0.00
PC:478fe     Total:615      MisBP:0   MisRate:0.00%    MPKI:0.00
PC:99ad6     Total:15      MisBP:0   MisRate:0.00%    MPKI:0.00
PC:14e54     Total:55285      MisBP:0   MisRate:0.00%    MPKI:0.00
PC:3df40     Total:3      MisBP:0   MisRate:0.00%    MPKI:0.00
PC:1c58e     Total:6778      MisBP:0   MisRate:0.00%    MPKI:0.00
PC:285f0     Total:75185      MisBP:0   MisRate:0.00%    MPKI:0.00
PC:3ce66     Total:15181      MisBP:0   MisRate:0.00%    MPKI:0.00
PC:3df62     Total:2      MisBP:0   MisRate:0.00%    MPKI:0.00
PC:3c932     Total:5613      MisBP:0   MisRate:0.00%    MPKI:0.00
PC:326fc     Total:10      MisBP:0   MisRate:0.00%    MPKI:0.00
PC:3c91e     Total:59637      MisBP:0   MisRate:0.00%    MPKI:0.00
PC:190d8     Total:14023      MisBP:0   MisRate:0.00%    MPKI:0.00
PC:41960     Total:565      MisBP:0   MisRate:0.00%    MPKI:0.00
PC:18874     Total:216174      MisBP:0   MisRate:0.00%    MPKI:0.00
PC:1c5b2     Total:24      MisBP:0   MisRate:0.00%    MPKI:0.00
PC:3ca58     Total:446579      MisBP:0   MisRate:0.00%    MPKI:0.00
PC:512ce     Total:229      MisBP:0   MisRate:0.00%    MPKI:0.00
PC:41a9a     Total:266      MisBP:0   MisRate:0.00%    MPKI:0.00
PC:2d224     Total:17491      MisBP:0   MisRate:0.00%    MPKI:0.00
PC:189ae     Total:459      MisBP:0   MisRate:0.00%    MPKI:0.00
PC:47920     Total:153      MisBP:0   MisRate:0.00%    MPKI:0.00
PC:99af8     Total:80      MisBP:0   MisRate:0.00%    MPKI:0.00
PC:14e76     Total:78401      MisBP:0   MisRate:0.00%    MPKI:0.00
PC:190f0     Total:12847      MisBP:0   MisRate:0.00%    MPKI:0.00
PC:3ca56     Total:260444      MisBP:0   MisRate:0.00%    MPKI:0.00
PC:512cc     Total:22085      MisBP:0   MisRate:0.00%    MPKI:0.00
PC:14e72     Total:91593      MisBP:0   MisRate:0.00%    MPKI:0.00
PC:3df5e     Total:2      MisBP:0   MisRate:0.00%    MPKI:0.00
PC:1c5ac     Total:24      MisBP:0   MisRate:0.00%    MPKI:0.00
PC:3ca52     Total:260459      MisBP:0   MisRate:0.00%    MPKI:0.00
PC:512c8     Total:1721      MisBP:0   MisRate:0.00%    MPKI:0.00
PC:41a94     Total:237      MisBP:0   MisRate:0.00%    MPKI:0.00
PC:2d21e     Total:17491      MisBP:0   MisRate:0.00%    MPKI:0.00
PC:14e6e     Total:91594      MisBP:0   MisRate:0.00%    MPKI:0.00
PC:3df5a     Total:2      MisBP:0   MisRate:0.00%    MPKI:0.00
PC:2860a     Total:29279      MisBP:0   MisRate:0.00%    MPKI:0.00
PC:3ce80     Total:24355      MisBP:0   MisRate:0.00%    MPKI:0.00
PC:7a7e2     Total:3      MisBP:0   MisRate:0.00%    MPKI:0.00
PC:301cc     Total:71      MisBP:0   MisRate:0.00%    MPKI:0.00
PC:301d2     Total:418      MisBP:0   MisRate:0.00%    MPKI:0.00
PC:3f1a2     Total:1185      MisBP:0   MisRate:0.00%    MPKI:0.00
PC:162a2     Total:26867      MisBP:0   MisRate:0.00%    MPKI:0.00
PC:15a3e     Total:87777      MisBP:0   MisRate:0.00%    MPKI:0.00
PC:2fd9e     Total:760      MisBP:0   MisRate:0.00%    MPKI:0.00
PC:1b95a     Total:94417      MisBP:0   MisRate:0.00%    MPKI:0.00
PC:301d0     Total:71      MisBP:0   MisRate:0.00%    MPKI:0.00
PC:3eb28     Total:2170      MisBP:0   MisRate:0.00%    MPKI:0.00
PC:2fd9c     Total:760      MisBP:0   MisRate:0.00%    MPKI:0.00
PC:1b526     Total:1016      MisBP:0   MisRate:0.00%    MPKI:0.00
PC:1b958     Total:93557      MisBP:0   MisRate:0.00%    MPKI:0.00
PC:301ce     Total:71      MisBP:0   MisRate:0.00%    MPKI:0.00
PC:3f19e     Total:1192      MisBP:0   MisRate:0.00%    MPKI:0.00
PC:2fd9a     Total:760      MisBP:0   MisRate:0.00%    MPKI:0.00
PC:1b956     Total:93557      MisBP:0   MisRate:0.00%    MPKI:0.00
PC:1b95c     Total:92501      MisBP:0   MisRate:0.00%    MPKI:0.00
PC:16914     Total:5753      MisBP:0   MisRate:0.00%    MPKI:0.00
PC:3eb24     Total:2170      MisBP:0   MisRate:0.00%    MPKI:0.00
PC:15a38     Total:93328      MisBP:0   MisRate:0.00%    MPKI:0.00
PC:2fd96     Total:816      MisBP:0   MisRate:0.00%    MPKI:0.00
PC:1b952     Total:93559      MisBP:0   MisRate:0.00%    MPKI:0.00
PC:301c8     Total:71      MisBP:0   MisRate:0.00%    MPKI:0.00
PC:3f198     Total:1213      MisBP:0   MisRate:0.00%    MPKI:0.00
PC:16298     Total:26527      MisBP:0   MisRate:0.00%    MPKI:0.00
PC:3f384     Total:5      MisBP:0   MisRate:0.00%    MPKI:0.00
PC:3eb20     Total:3285      MisBP:0   MisRate:0.00%    MPKI:0.00
PC:15a34     Total:93331      MisBP:0   MisRate:0.00%    MPKI:0.00
PC:1b950     Total:93674      MisBP:0   MisRate:0.00%    MPKI:0.00
PC:301c6     Total:71      MisBP:0   MisRate:0.00%    MPKI:0.00
PC:16296     Total:26735      MisBP:0   MisRate:0.00%    MPKI:0.00
PC:301da     Total:413      MisBP:0   MisRate:0.00%    MPKI:0.00
PC:162b0     Total:26103      MisBP:0   MisRate:0.00%    MPKI:0.00
PC:3f39c     Total:2      MisBP:0   MisRate:0.00%    MPKI:0.00
PC:3eb38     Total:795      MisBP:0   MisRate:0.00%    MPKI:0.00
PC:1b968     Total:93291      MisBP:0   MisRate:0.00%    MPKI:0.00
PC:162ae     Total:26690      MisBP:0   MisRate:0.00%    MPKI:0.00
PC:3f39a     Total:2      MisBP:0   MisRate:0.00%    MPKI:0.00
PC:3eb36     Total:814      MisBP:0   MisRate:0.00%    MPKI:0.00
PC:15a4a     Total:87769      MisBP:0   MisRate:0.00%    MPKI:0.00
PC:2fdaa     Total:744      MisBP:0   MisRate:0.00%    MPKI:0.00
PC:1b966     Total:93297      MisBP:0   MisRate:0.00%    MPKI:0.00
PC:301dc     Total:413      MisBP:0   MisRate:0.00%    MPKI:0.00
PC:3f1ac     Total:1881      MisBP:0   MisRate:0.00%    MPKI:0.00
PC:160c0     Total:50114      MisBP:0   MisRate:0.00%    MPKI:0.00
PC:16924     Total:5374      MisBP:0   MisRate:0.00%    MPKI:0.00
PC:1b964     Total:93309      MisBP:0   MisRate:0.00%    MPKI:0.00
PC:3eb1e     Total:3285      MisBP:0   MisRate:0.00%    MPKI:0.00
PC:3f1aa     Total:1882      MisBP:0   MisRate:0.00%    MPKI:0.00
PC:162aa     Total:26691      MisBP:0   MisRate:0.00%    MPKI:0.00
PC:3eb32     Total:819      MisBP:0   MisRate:0.00%    MPKI:0.00
PC:15a46     Total:87771      MisBP:0   MisRate:0.00%    MPKI:0.00
PC:2fda6     Total:744      MisBP:0   MisRate:0.00%    MPKI:0.00
PC:1b962     Total:92503      MisBP:0   MisRate:0.00%    MPKI:0.00
PC:3f1a8     Total:1882      MisBP:0   MisRate:0.00%    MPKI:0.00
PC:160bc     Total:55573      MisBP:0   MisRate:0.00%    MPKI:0.00
PC:3eb30     Total:819      MisBP:0   MisRate:0.00%    MPKI:0.00
PC:15a44     Total:87774      MisBP:0   MisRate:0.00%    MPKI:0.00
PC:2fda2     Total:742      MisBP:0   MisRate:0.00%    MPKI:0.00
PC:1b95e     Total:92503      MisBP:0   MisRate:0.00%    MPKI:0.00
PC:301d4     Total:413      MisBP:0   MisRate:0.00%    MPKI:0.00
PC:1b52a     Total:1016      MisBP:0   MisRate:0.00%    MPKI:0.00
PC:18228     Total:108702      MisBP:0   MisRate:0.00%    MPKI:0.00
PC:2caaa     Total:30557      MisBP:0   MisRate:0.00%    MPKI:0.00
PC:19110     Total:11618      MisBP:0   MisRate:0.00%    MPKI:0.00
PC:2ced8     Total:2      MisBP:0   MisRate:0.00%    MPKI:0.00
PC:4174e     Total:389      MisBP:0   MisRate:0.00%    MPKI:0.00
PC:4131c     Total:38715      MisBP:0   MisRate:0.00%    MPKI:0.00
PC:2caa6     Total:30557      MisBP:0   MisRate:0.00%    MPKI:0.00
[...]
PC:3c76a     Total:30045      MisBP:6414   MisRate:21.35%    MPKI:0.02
PC:3cdfa     Total:41587      MisBP:6480   MisRate:15.58%    MPKI:0.02
PC:2d7fe     Total:65760      MisBP:6513   MisRate:9.90%    MPKI:0.02
PC:187b4     Total:359884      MisBP:6531   MisRate:1.81%    MPKI:0.02
PC:3cdca     Total:32343      MisBP:6533   MisRate:20.20%    MPKI:0.02
PC:411cc     Total:78166      MisBP:6553   MisRate:8.38%    MPKI:0.02
PC:1c300     Total:55090      MisBP:6556   MisRate:11.90%    MPKI:0.02
PC:19656     Total:63726      MisBP:6572   MisRate:10.31%    MPKI:0.02
PC:19a54     Total:55397      MisBP:6583   MisRate:11.88%    MPKI:0.02
PC:3e744     Total:29578      MisBP:6661   MisRate:22.52%    MPKI:0.02
PC:3f4d2     Total:34119      MisBP:6799   MisRate:19.93%    MPKI:0.02
PC:3199e     Total:79667      MisBP:6813   MisRate:8.55%    MPKI:0.02
PC:2fd58     Total:36776      MisBP:6820   MisRate:18.54%    MPKI:0.02
PC:1615e     Total:29000      MisBP:6831   MisRate:23.56%    MPKI:0.02
PC:40b2c     Total:148083      MisBP:6841   MisRate:4.62%    MPKI:0.02
PC:15ca2     Total:44091      MisBP:6852   MisRate:15.54%    MPKI:0.02
PC:1ac4c     Total:172277      MisBP:6901   MisRate:4.01%    MPKI:0.02
PC:1acf6     Total:51979      MisBP:6949   MisRate:13.37%    MPKI:0.02
PC:3ffa8     Total:17918      MisBP:6998   MisRate:39.06%    MPKI:0.02
PC:3d36e     Total:67453      MisBP:7012   MisRate:10.40%    MPKI:0.02
PC:2ca4a     Total:35304      MisBP:7023   MisRate:19.89%    MPKI:0.02
PC:1c0b6     Total:48142      MisBP:7043   MisRate:14.63%    MPKI:0.02
PC:16198     Total:28084      MisBP:7056   MisRate:25.12%    MPKI:0.02
PC:3e832     Total:41014      MisBP:7061   MisRate:17.22%    MPKI:0.02
PC:3c660     Total:34488      MisBP:7062   MisRate:20.48%    MPKI:0.02
PC:2d576     Total:34440      MisBP:7091   MisRate:20.59%    MPKI:0.02
PC:192f6     Total:75866      MisBP:7103   MisRate:9.36%    MPKI:0.02
PC:2d6d0     Total:51438      MisBP:7115   MisRate:13.83%    MPKI:0.02
PC:18f70     Total:91509      MisBP:7123   MisRate:7.78%    MPKI:0.02
PC:40916     Total:34893      MisBP:7133   MisRate:20.44%    MPKI:0.02
PC:3ce3c     Total:71279      MisBP:7140   MisRate:10.02%    MPKI:0.02
PC:2cb26     Total:70615      MisBP:7142   MisRate:10.11%    MPKI:0.02
PC:2cd68     Total:61404      MisBP:7152   MisRate:11.65%    MPKI:0.02
PC:15e66     Total:39333      MisBP:7213   MisRate:18.34%    MPKI:0.02
PC:15bc0     Total:31549      MisBP:7222   MisRate:22.89%    MPKI:0.02
PC:162d6     Total:41254      MisBP:7237   MisRate:17.54%    MPKI:0.02
PC:3cfec     Total:48687      MisBP:7261   MisRate:14.91%    MPKI:0.02
PC:18bec     Total:800996      MisBP:7303   MisRate:0.91%    MPKI:0.02
PC:41212     Total:25988      MisBP:7335   MisRate:28.22%    MPKI:0.02
PC:14e74     Total:89158      MisBP:7337   MisRate:8.23%    MPKI:0.02
PC:1ae94     Total:45267      MisBP:7348   MisRate:16.23%    MPKI:0.02
PC:2cca2     Total:53338      MisBP:7399   MisRate:13.87%    MPKI:0.02
PC:192ea     Total:73420      MisBP:7415   MisRate:10.10%    MPKI:0.02
PC:1afd6     Total:40179      MisBP:7519   MisRate:18.71%    MPKI:0.02
PC:3ce9a     Total:26033      MisBP:7610   MisRate:29.23%    MPKI:0.02
PC:19018     Total:99136      MisBP:7641   MisRate:7.71%    MPKI:0.02
PC:197da     Total:79903      MisBP:7661   MisRate:9.59%    MPKI:0.02
PC:3c7bc     Total:68526      MisBP:7680   MisRate:11.21%    MPKI:0.02
PC:192c0     Total:75170      MisBP:7721   MisRate:10.27%    MPKI:0.02
PC:1c1fc     Total:101971      MisBP:7798   MisRate:7.65%    MPKI:0.03
PC:164c6     Total:47588      MisBP:7846   MisRate:16.49%    MPKI:0.03
PC:1973e     Total:64875      MisBP:7862   MisRate:12.12%    MPKI:0.03
PC:19748     Total:63204      MisBP:7895   MisRate:12.49%    MPKI:0.03
PC:15bea     Total:58741      MisBP:7901   MisRate:13.45%    MPKI:0.03
PC:478b8     Total:41606      MisBP:7910   MisRate:19.01%    MPKI:0.03
PC:3c64a     Total:42770      MisBP:8049   MisRate:18.82%    MPKI:0.03
PC:2cd76     Total:48336      MisBP:8201   MisRate:16.97%    MPKI:0.03
PC:319bc     Total:77623      MisBP:8209   MisRate:10.58%    MPKI:0.03
PC:411d4     Total:76356      MisBP:8257   MisRate:10.81%    MPKI:0.03
PC:1978a     Total:40946      MisBP:8387   MisRate:20.48%    MPKI:0.03
PC:15e94     Total:24554      MisBP:8389   MisRate:34.17%    MPKI:0.03
PC:47b0c     Total:62596      MisBP:8473   MisRate:13.54%    MPKI:0.03
PC:2ca8c     Total:69100      MisBP:8486   MisRate:12.28%    MPKI:0.03
PC:164b4     Total:48388      MisBP:8513   MisRate:17.59%    MPKI:0.03
PC:18f84     Total:87957      MisBP:8517   MisRate:9.68%    MPKI:0.03
PC:3c878     Total:60037      MisBP:8540   MisRate:14.22%    MPKI:0.03
PC:2e870     Total:80718      MisBP:8547   MisRate:10.59%    MPKI:0.03
PC:4112a     Total:55576      MisBP:8560   MisRate:15.40%    MPKI:0.03
PC:190ae     Total:67146      MisBP:8590   MisRate:12.79%    MPKI:0.03
PC:15e30     Total:31984      MisBP:8638   MisRate:27.01%    MPKI:0.03
PC:2cdc8     Total:60459      MisBP:8732   MisRate:14.44%    MPKI:0.03
PC:18a14     Total:71765      MisBP:8786   MisRate:12.24%    MPKI:0.03
PC:15d22     Total:39970      MisBP:8848   MisRate:22.14%    MPKI:0.03
PC:15942     Total:75432      MisBP:8853   MisRate:11.74%    MPKI:0.03
PC:15b50     Total:54396      MisBP:8933   MisRate:16.42%    MPKI:0.03
PC:19a5e     Total:58240      MisBP:8959   MisRate:15.38%    MPKI:0.03
PC:3cc30     Total:118825      MisBP:8982   MisRate:7.56%    MPKI:0.03
PC:19762     Total:50954      MisBP:9029   MisRate:17.72%    MPKI:0.03
PC:1ad02     Total:57388      MisBP:9044   MisRate:15.76%    MPKI:0.03
PC:3ec4e     Total:25980      MisBP:9061   MisRate:34.88%    MPKI:0.03
PC:2d2ae     Total:46912      MisBP:9069   MisRate:19.33%    MPKI:0.03
PC:3ec3c     Total:67999      MisBP:9114   MisRate:13.40%    MPKI:0.03
PC:47b58     Total:64438      MisBP:9138   MisRate:14.18%    MPKI:0.03
PC:2cc6c     Total:53037      MisBP:9138   MisRate:17.23%    MPKI:0.03
PC:19302     Total:69943      MisBP:9159   MisRate:13.09%    MPKI:0.03
PC:18df0     Total:60190      MisBP:9169   MisRate:15.23%    MPKI:0.03
PC:199dc     Total:71275      MisBP:9210   MisRate:12.92%    MPKI:0.03
PC:410b4     Total:46517      MisBP:9274   MisRate:19.94%    MPKI:0.03
PC:3c62a     Total:57111      MisBP:9297   MisRate:16.28%    MPKI:0.03
PC:1add0     Total:102103      MisBP:9383   MisRate:9.19%    MPKI:0.03
PC:159ce     Total:132750      MisBP:9504   MisRate:7.16%    MPKI:0.03
PC:15890     Total:55066      MisBP:9512   MisRate:17.27%    MPKI:0.03
PC:2cd4a     Total:71513      MisBP:9515   MisRate:13.31%    MPKI:0.03
PC:28718     Total:67882      MisBP:9774   MisRate:14.40%    MPKI:0.03
PC:2893e     Total:218752      MisBP:9882   MisRate:4.52%    MPKI:0.03
PC:3c634     Total:64001      MisBP:9957   MisRate:15.56%    MPKI:0.03
PC:18fce     Total:91397      MisBP:9977   MisRate:10.92%    MPKI:0.03
PC:1c04a     Total:114881      MisBP:10070   MisRate:8.77%    MPKI:0.03
PC:3be8a     Total:84974      MisBP:10089   MisRate:11.87%    MPKI:0.03
PC:159d4     Total:117007      MisBP:10171   MisRate:8.69%    MPKI:0.03
PC:3c264     Total:127449      MisBP:10266   MisRate:8.05%    MPKI:0.03
PC:40b32     Total:161940      MisBP:10299   MisRate:6.36%    MPKI:0.03
PC:4110c     Total:92204      MisBP:10310   MisRate:11.18%    MPKI:0.03
PC:18dfa     Total:88396      MisBP:10314   MisRate:11.67%    MPKI:0.03
PC:1c826     Total:153716      MisBP:10379   MisRate:6.75%    MPKI:0.03
PC:287d4     Total:52664      MisBP:10403   MisRate:19.75%    MPKI:0.03
PC:3c2d4     Total:115874      MisBP:10465   MisRate:9.03%    MPKI:0.03
PC:3cd96     Total:46079      MisBP:10516   MisRate:22.82%    MPKI:0.03
PC:3c804     Total:113390      MisBP:10546   MisRate:9.30%    MPKI:0.03
PC:2cc86     Total:196741      MisBP:10562   MisRate:5.37%    MPKI:0.03
PC:18b62     Total:24756      MisBP:10567   MisRate:42.68%    MPKI:0.03
PC:2cc64     Total:111495      MisBP:10635   MisRate:9.54%    MPKI:0.03
PC:1acc2     Total:101958      MisBP:10809   MisRate:10.60%    MPKI:0.03
PC:1b862     Total:45201      MisBP:10843   MisRate:23.99%    MPKI:0.03
PC:3ce00     Total:34963      MisBP:10980   MisRate:31.40%    MPKI:0.04
PC:18b72     Total:24732      MisBP:11019   MisRate:44.55%    MPKI:0.04
PC:18e38     Total:149198      MisBP:11057   MisRate:7.41%    MPKI:0.04
PC:1596a     Total:144678      MisBP:11065   MisRate:7.65%    MPKI:0.04
PC:196ea     Total:56646      MisBP:11223   MisRate:19.81%    MPKI:0.04
PC:40936     Total:35627      MisBP:11297   MisRate:31.71%    MPKI:0.04
PC:1c15c     Total:93404      MisBP:11315   MisRate:12.11%    MPKI:0.04
PC:3bfc4     Total:179185      MisBP:11338   MisRate:6.33%    MPKI:0.04
PC:3e748     Total:42595      MisBP:11382   MisRate:26.72%    MPKI:0.04
PC:18b7a     Total:13624      MisBP:11398   MisRate:83.66%    MPKI:0.04
PC:17eb8     Total:64445      MisBP:11430   MisRate:17.74%    MPKI:0.04
PC:47b94     Total:70082      MisBP:11442   MisRate:16.33%    MPKI:0.04
PC:3c5cc     Total:55675      MisBP:11679   MisRate:20.98%    MPKI:0.04
PC:1c200     Total:89017      MisBP:11816   MisRate:13.27%    MPKI:0.04
PC:15972     Total:127396      MisBP:11887   MisRate:9.33%    MPKI:0.04
PC:2d29e     Total:89572      MisBP:12027   MisRate:13.43%    MPKI:0.04
PC:17de6     Total:64736      MisBP:12622   MisRate:19.50%    MPKI:0.04
PC:18b12     Total:60515      MisBP:12671   MisRate:20.94%    MPKI:0.04
PC:1ae24     Total:94830      MisBP:12762   MisRate:13.46%    MPKI:0.04
PC:28644     Total:83805      MisBP:12771   MisRate:15.24%    MPKI:0.04
PC:3c7ee     Total:65568      MisBP:12822   MisRate:19.56%    MPKI:0.04
PC:1aca4     Total:134909      MisBP:12928   MisRate:9.58%    MPKI:0.04
PC:158ca     Total:117016      MisBP:12957   MisRate:11.07%    MPKI:0.04
PC:3f4cc     Total:52414      MisBP:12976   MisRate:24.76%    MPKI:0.04
PC:15c9c     Total:93147      MisBP:12992   MisRate:13.95%    MPKI:0.04
PC:24ccc     Total:170764      MisBP:13099   MisRate:7.67%    MPKI:0.04
PC:156b6     Total:204865      MisBP:13303   MisRate:6.49%    MPKI:0.04
PC:2d7ee     Total:150087      MisBP:13447   MisRate:8.96%    MPKI:0.04
PC:51368     Total:465273      MisBP:13566   MisRate:2.92%    MPKI:0.04
PC:15c92     Total:102529      MisBP:13606   MisRate:13.27%    MPKI:0.04
PC:159e8     Total:115865      MisBP:13784   MisRate:11.90%    MPKI:0.04
PC:3be8e     Total:82486      MisBP:13838   MisRate:16.78%    MPKI:0.04
PC:3cb10     Total:68981      MisBP:14128   MisRate:20.48%    MPKI:0.05
PC:410ee     Total:45642      MisBP:14134   MisRate:30.97%    MPKI:0.05
PC:17eae     Total:76934      MisBP:14145   MisRate:18.39%    MPKI:0.05
PC:3c298     Total:69912      MisBP:14192   MisRate:20.30%    MPKI:0.05
PC:3cff0     Total:54368      MisBP:14683   MisRate:27.01%    MPKI:0.05
PC:159ee     Total:91819      MisBP:14971   MisRate:16.30%    MPKI:0.05
PC:1accc     Total:113799      MisBP:15006   MisRate:13.19%    MPKI:0.05
PC:3ce46     Total:77218      MisBP:15371   MisRate:19.91%    MPKI:0.05
PC:15a08     Total:94149      MisBP:15511   MisRate:16.47%    MPKI:0.05
PC:47b60     Total:67833      MisBP:15723   MisRate:23.18%    MPKI:0.05
PC:3c7e0     Total:97547      MisBP:15976   MisRate:16.38%    MPKI:0.05
PC:17fcc     Total:166827      MisBP:16077   MisRate:9.64%    MPKI:0.05
PC:159f8     Total:75802      MisBP:16354   MisRate:21.57%    MPKI:0.05
PC:1b7f4     Total:59666      MisBP:16565   MisRate:27.76%    MPKI:0.05
PC:1adcc     Total:123548      MisBP:16851   MisRate:13.64%    MPKI:0.05
PC:2ca90     Total:81345      MisBP:16865   MisRate:20.73%    MPKI:0.05
PC:1aca0     Total:153759      MisBP:16904   MisRate:10.99%    MPKI:0.05
PC:15a0e     Total:115697      MisBP:17020   MisRate:14.71%    MPKI:0.05
PC:199f6     Total:93859      MisBP:17093   MisRate:18.21%    MPKI:0.06
PC:197f4     Total:79665      MisBP:17103   MisRate:21.47%    MPKI:0.06
PC:1973c     Total:117328      MisBP:17297   MisRate:14.74%    MPKI:0.06
PC:9e50c     Total:431690      MisBP:17355   MisRate:4.02%    MPKI:0.06
PC:190a6     Total:89523      MisBP:17832   MisRate:19.92%    MPKI:0.06
PC:18d76     Total:109445      MisBP:17845   MisRate:16.30%    MPKI:0.06
PC:19a52     Total:94182      MisBP:17897   MisRate:19.00%    MPKI:0.06
PC:159fe     Total:80584      MisBP:17939   MisRate:22.26%    MPKI:0.06
PC:41130     Total:60673      MisBP:18199   MisRate:30.00%    MPKI:0.06
PC:2d2a2     Total:102447      MisBP:18256   MisRate:17.82%    MPKI:0.06
PC:19a6c     Total:99765      MisBP:18320   MisRate:18.36%    MPKI:0.06
PC:1882e     Total:232414      MisBP:18400   MisRate:7.92%    MPKI:0.06
PC:3c7b2     Total:99965      MisBP:18419   MisRate:18.43%    MPKI:0.06
PC:1c77e     Total:119518      MisBP:18502   MisRate:15.48%    MPKI:0.06
PC:17db0     Total:101008      MisBP:18524   MisRate:18.34%    MPKI:0.06
PC:1c088     Total:65943      MisBP:18662   MisRate:28.30%    MPKI:0.06
PC:3c692     Total:87646      MisBP:18674   MisRate:21.31%    MPKI:0.06
PC:3cb1a     Total:85128      MisBP:18783   MisRate:22.06%    MPKI:0.06
PC:18f26     Total:134405      MisBP:18917   MisRate:14.07%    MPKI:0.06
PC:17dac     Total:109881      MisBP:19118   MisRate:17.40%    MPKI:0.06
PC:1c82c     Total:211399      MisBP:19235   MisRate:9.10%    MPKI:0.06
PC:28602     Total:785393      MisBP:19568   MisRate:2.49%    MPKI:0.06
PC:18e00     Total:310308      MisBP:19736   MisRate:6.36%    MPKI:0.06
PC:18eba     Total:142124      MisBP:19833   MisRate:13.95%    MPKI:0.06
PC:19754     Total:123558      MisBP:19937   MisRate:16.14%    MPKI:0.06
PC:1b7f0     Total:84568      MisBP:19953   MisRate:23.59%    MPKI:0.06
PC:1acd6     Total:157957      MisBP:20005   MisRate:12.66%    MPKI:0.06
PC:2cc8c     Total:188384      MisBP:20184   MisRate:10.71%    MPKI:0.07
PC:512ba     Total:195162      MisBP:20392   MisRate:10.45%    MPKI:0.07
PC:18dde     Total:72028      MisBP:20610   MisRate:28.61%    MPKI:0.07
PC:17e74     Total:94877      MisBP:20736   MisRate:21.86%    MPKI:0.07
PC:18d72     Total:97752      MisBP:20778   MisRate:21.26%    MPKI:0.07
PC:15950     Total:87632      MisBP:20866   MisRate:23.81%    MPKI:0.07
PC:18d6a     Total:86160      MisBP:20874   MisRate:24.23%    MPKI:0.07
PC:154b2     Total:453246      MisBP:20999   MisRate:4.63%    MPKI:0.07
PC:2cc9c     Total:223043      MisBP:21191   MisRate:9.50%    MPKI:0.07
PC:1576e     Total:128464      MisBP:21816   MisRate:16.98%    MPKI:0.07
PC:19614     Total:365835      MisBP:22256   MisRate:6.08%    MPKI:0.07
PC:192ac     Total:187351      MisBP:22438   MisRate:11.98%    MPKI:0.07
PC:3cfa6     Total:248993      MisBP:22498   MisRate:9.04%    MPKI:0.07
PC:1925a     Total:170101      MisBP:23592   MisRate:13.87%    MPKI:0.08
PC:1acaa     Total:126033      MisBP:24666   MisRate:19.57%    MPKI:0.08
PC:14fb8     Total:533491      MisBP:24749   MisRate:4.64%    MPKI:0.08
PC:3c220     Total:477181      MisBP:24765   MisRate:5.19%    MPKI:0.08
PC:1acb8     Total:122944      MisBP:25315   MisRate:20.59%    MPKI:0.08
PC:1ad06     Total:134371      MisBP:25663   MisRate:19.10%    MPKI:0.08
PC:18d56     Total:136022      MisBP:26116   MisRate:19.20%    MPKI:0.08
PC:1b830     Total:75084      MisBP:26303   MisRate:35.03%    MPKI:0.08
PC:15964     Total:136558      MisBP:26783   MisRate:19.61%    MPKI:0.09
PC:1ace0     Total:165786      MisBP:27707   MisRate:16.71%    MPKI:0.09
PC:192e0     Total:184756      MisBP:28273   MisRate:15.30%    MPKI:0.09
PC:14e10     Total:115969      MisBP:28595   MisRate:24.66%    MPKI:0.09
PC:1acbc     Total:137527      MisBP:28598   MisRate:20.79%    MPKI:0.09
PC:18f6a     Total:259909      MisBP:28611   MisRate:11.01%    MPKI:0.09
PC:3bfda     Total:219349      MisBP:29001   MisRate:13.22%    MPKI:0.09
PC:1c7d4     Total:100387      MisBP:29123   MisRate:29.01%    MPKI:0.09
PC:1c01e     Total:165944      MisBP:29254   MisRate:17.63%    MPKI:0.09
PC:176c2     Total:153908      MisBP:29885   MisRate:19.42%    MPKI:0.10
PC:1595a     Total:110742      MisBP:30465   MisRate:27.51%    MPKI:0.10
PC:3ca14     Total:270611      MisBP:30506   MisRate:11.27%    MPKI:0.10
PC:15b40     Total:125434      MisBP:30784   MisRate:24.54%    MPKI:0.10
PC:14fa8     Total:129777      MisBP:33492   MisRate:25.81%    MPKI:0.11
PC:19314     Total:205367      MisBP:33578   MisRate:16.35%    MPKI:0.11
PC:15a16     Total:110790      MisBP:33895   MisRate:30.59%    MPKI:0.11
PC:1bf82     Total:143820      MisBP:33940   MisRate:23.60%    MPKI:0.11
PC:1c1d2     Total:154169      MisBP:35032   MisRate:22.72%    MPKI:0.11
PC:15a1e     Total:104212      MisBP:35329   MisRate:33.90%    MPKI:0.11
PC:1c12c     Total:205907      MisBP:36178   MisRate:17.57%    MPKI:0.12
PC:3cfac     Total:235381      MisBP:36309   MisRate:15.43%    MPKI:0.12
PC:1bfe2     Total:280276      MisBP:37943   MisRate:13.54%    MPKI:0.12
PC:1bfe8     Total:220846      MisBP:38140   MisRate:17.27%    MPKI:0.12
PC:3ca34     Total:261433      MisBP:38468   MisRate:14.71%    MPKI:0.12
PC:155e6     Total:186920      MisBP:38858   MisRate:20.79%    MPKI:0.13
PC:3bfc6     Total:184195      MisBP:39189   MisRate:21.28%    MPKI:0.13
PC:3ca0a     Total:319403      MisBP:39433   MisRate:12.35%    MPKI:0.13
PC:14fb2     Total:493947      MisBP:39529   MisRate:8.00%    MPKI:0.13
PC:14e64     Total:258713      MisBP:39551   MisRate:15.29%    MPKI:0.13
PC:1bf88     Total:105820      MisBP:40003   MisRate:37.80%    MPKI:0.13
PC:157ba     Total:124544      MisBP:41349   MisRate:33.20%    MPKI:0.13
PC:14ee6     Total:289118      MisBP:42753   MisRate:14.79%    MPKI:0.14
PC:18cde     Total:272123      MisBP:43136   MisRate:15.85%    MPKI:0.14
PC:18d4c     Total:167569      MisBP:43628   MisRate:26.04%    MPKI:0.14
PC:18d34     Total:246065      MisBP:44648   MisRate:18.14%    MPKI:0.14
PC:3c224     Total:496267      MisBP:45385   MisRate:9.15%    MPKI:0.15
PC:3c6e4     Total:196925      MisBP:45684   MisRate:23.20%    MPKI:0.15
PC:3bf88     Total:154787      MisBP:45871   MisRate:29.63%    MPKI:0.15
PC:14ea4     Total:281810      MisBP:46706   MisRate:16.57%    MPKI:0.15
PC:154a2     Total:217190      MisBP:46933   MisRate:21.61%    MPKI:0.15
PC:156e4     Total:307653      MisBP:47210   MisRate:15.35%    MPKI:0.15
PC:154ac     Total:432193      MisBP:48180   MisRate:11.15%    MPKI:0.16
PC:2866a     Total:774093      MisBP:48545   MisRate:6.27%    MPKI:0.16
PC:3c73a     Total:294525      MisBP:49058   MisRate:16.66%    MPKI:0.16
PC:14f26     Total:292987      MisBP:50357   MisRate:17.19%    MPKI:0.16
PC:512b6     Total:495232      MisBP:52554   MisRate:10.61%    MPKI:0.17
PC:156a4     Total:274534      MisBP:55461   MisRate:20.20%    MPKI:0.18
PC:18d3e     Total:213229      MisBP:55711   MisRate:26.13%    MPKI:0.18
PC:24cc8     Total:196002      MisBP:55998   MisRate:28.57%    MPKI:0.18
PC:3bf76     Total:911668      MisBP:56531   MisRate:6.20%    MPKI:0.18
PC:1bfa8     Total:234534      MisBP:57928   MisRate:24.70%    MPKI:0.19
PC:18bb2     Total:443624      MisBP:60669   MisRate:13.68%    MPKI:0.20
PC:51360     Total:680929      MisBP:63049   MisRate:9.26%    MPKI:0.20
PC:1bfca     Total:280852      MisBP:65902   MisRate:23.47%    MPKI:0.21
PC:14f62     Total:305523      MisBP:67316   MisRate:22.03%    MPKI:0.22
PC:3ca32     Total:462399      MisBP:67660   MisRate:14.63%    MPKI:0.22
PC:84c10     Total:169789      MisBP:69091   MisRate:40.69%    MPKI:0.22
PC:512ac     Total:817251      MisBP:77835   MisRate:9.52%    MPKI:0.25
PC:17694     Total:2180849      MisBP:79327   MisRate:3.64%    MPKI:0.26
PC:188ca     Total:386741      MisBP:88424   MisRate:22.86%    MPKI:0.29
PC:18bda     Total:736072      MisBP:89770   MisRate:12.20%    MPKI:0.29
PC:18bde     Total:805467      MisBP:124249   MisRate:15.43%    MPKI:0.40
PC:3bf7c     Total:892531      MisBP:133848   MisRate:15.00%    MPKI:0.43
PC:1a934     Total:838407      MisBP:229482   MisRate:27.37%    MPKI:0.74
Totfetch:672836995  TotInsts:310000002  TotMis : inf%   MPKI : 24.50
=============finish sim!!!!!!=============
Done running SimPoint!
