Global frequency set at 1000000000000 ticks per second
 Register [printBranch()] ExitCallback !!!!!!! 
gem5 Simulator System.  https://www.gem5.org
gem5 is copyrighted software; use the --copyright option for details.

gem5 version 22.0.0.2
gem5 compiled Sep  7 2022 00:42:18
gem5 started Sep  7 2022 07:56:53
gem5 executing on a100, pid 2859598
command line: /data/zxf/gem5/gem5-prof/build/ARM/gem5.fast --outdir=/data/zxf/checkpoint/spec2006/429.mcf/prof/mcf_ckp_15 /data/zxf/gem5/gem5-prof/configs/example/se.py --cpu-type O3CPU --cpu-clock 1GHz --num-cpu 1 --l1d-hwp-type=BOPPrefetcher --caches --l2cache --l1i_size 32kB --l1d_size 32kB --l2_size 1MB --l1i_assoc 8 --l1d_assoc 8 --l2_assoc 16 --cacheline_size 64 --mem-type DDR3_2133_8x8 --mem-size 16GB --restore-simpoint-checkpoint -r 15 --checkpoint-dir /data/zxf/checkpoint/spec2006/429.mcf/ckpt -c mcf_base.gcc41-64bit -o inp.in

info: Standard input is not a terminal, disabling listeners.
Resuming from /data/zxf/checkpoint/spec2006/429.mcf/ckpt/cpt.simpoint_14_inst_372590000000_weight_0.210196_interval_300000000_warmup_10000000
Resuming from SimPoint #14, start_inst:372590000000, weight:0.210196, interval:300000000, warmup:10000000
Switch at curTick count:10000
Switched CPUS @ tick 217931596509500
[(<m5.objects.ArmCPU.ArmAtomicSimpleCPU object at 0x7f4b58bacbb0>, <m5.objects.ArmCPU.ArmO3CPU object at 0x7f4b58bc4e20>)]
switching cpus



+++++++++++++++++++++++++zxf print simpoint+++++++++++++++++++++++++++
Warmed up! Dumping and resetting stats!


=============start sim!!!!!!=============
PC:11a40     Total:1639      MisBP:0   MisRate:0.00%    MPKI:0.00
PC:11938     Total:2      MisBP:0   MisRate:0.00%    MPKI:0.00
PC:1193a     Total:6      MisBP:0   MisRate:0.00%    MPKI:0.00
PC:1193c     Total:2      MisBP:0   MisRate:0.00%    MPKI:0.00
PC:1193e     Total:2      MisBP:0   MisRate:0.00%    MPKI:0.00
PC:11900     Total:33      MisBP:0   MisRate:0.00%    MPKI:0.00
PC:11902     Total:33      MisBP:0   MisRate:0.00%    MPKI:0.00
PC:11904     Total:33      MisBP:0   MisRate:0.00%    MPKI:0.00
PC:11908     Total:33      MisBP:0   MisRate:0.00%    MPKI:0.00
PC:1190a     Total:33      MisBP:0   MisRate:0.00%    MPKI:0.00
PC:11936     Total:2      MisBP:0   MisRate:0.00%    MPKI:0.00
PC:11a44     Total:3278      MisBP:0   MisRate:0.00%    MPKI:0.00
PC:11a48     Total:1639      MisBP:0   MisRate:0.00%    MPKI:0.00
PC:11a4c     Total:1638      MisBP:0   MisRate:0.00%    MPKI:0.00
PC:11a4e     Total:1635      MisBP:0   MisRate:0.00%    MPKI:0.00
PC:11a52     Total:1252      MisBP:0   MisRate:0.00%    MPKI:0.00
PC:11a54     Total:1252      MisBP:0   MisRate:0.00%    MPKI:0.00
PC:11a58     Total:1252      MisBP:0   MisRate:0.00%    MPKI:0.00
PC:11a5a     Total:1248      MisBP:0   MisRate:0.00%    MPKI:0.00
PC:10a20     Total:676663      MisBP:0   MisRate:0.00%    MPKI:0.00
PC:118f2     Total:58198      MisBP:0   MisRate:0.00%    MPKI:0.00
PC:11cf6     Total:1      MisBP:0   MisRate:0.00%    MPKI:0.00
PC:118f6     Total:57550      MisBP:0   MisRate:0.00%    MPKI:0.00
PC:1170c     Total:1494      MisBP:0   MisRate:0.00%    MPKI:0.00
PC:10a02     Total:157545      MisBP:0   MisRate:0.00%    MPKI:0.00
PC:11b56     Total:305      MisBP:0   MisRate:0.00%    MPKI:0.00
PC:11bc2     Total:7      MisBP:0   MisRate:0.00%    MPKI:0.00
PC:10a6e     Total:1      MisBP:0   MisRate:0.00%    MPKI:0.00
PC:11a5c     Total:1248      MisBP:0   MisRate:0.00%    MPKI:0.00
PC:11b74     Total:42493      MisBP:0   MisRate:0.00%    MPKI:0.00
PC:1173a     Total:1340      MisBP:0   MisRate:0.00%    MPKI:0.00
PC:11b7c     Total:19381      MisBP:0   MisRate:0.00%    MPKI:0.00
PC:11742     Total:35      MisBP:0   MisRate:0.00%    MPKI:0.00
PC:11746     Total:35      MisBP:0   MisRate:0.00%    MPKI:0.00
PC:11930     Total:65563      MisBP:0   MisRate:0.00%    MPKI:0.00
PC:11932     Total:2      MisBP:0   MisRate:0.00%    MPKI:0.00
PC:11934     Total:2      MisBP:0   MisRate:0.00%    MPKI:0.00
PC:10a4a     Total:99      MisBP:0   MisRate:0.00%    MPKI:0.00
PC:1175c     Total:185519      MisBP:0   MisRate:0.00%    MPKI:0.00
PC:1175e     Total:184891      MisBP:0   MisRate:0.00%    MPKI:0.00
PC:10a44     Total:185416      MisBP:0   MisRate:0.00%    MPKI:0.00
PC:11b98     Total:1330      MisBP:0   MisRate:0.00%    MPKI:0.00
PC:11760     Total:179095      MisBP:0   MisRate:0.00%    MPKI:0.00
PC:11762     Total:178724      MisBP:0   MisRate:0.00%    MPKI:0.00
PC:11b9c     Total:1329      MisBP:0   MisRate:0.00%    MPKI:0.00
PC:11764     Total:178965      MisBP:0   MisRate:0.00%    MPKI:0.00
PC:11b94     Total:1330      MisBP:0   MisRate:0.00%    MPKI:0.00
PC:11b9e     Total:1329      MisBP:0   MisRate:0.00%    MPKI:0.00
PC:11766     Total:178811      MisBP:0   MisRate:0.00%    MPKI:0.00
PC:10a4c     Total:180      MisBP:0   MisRate:0.00%    MPKI:0.00
PC:11ba0     Total:1329      MisBP:0   MisRate:0.00%    MPKI:0.00
PC:1176a     Total:11221      MisBP:0   MisRate:0.00%    MPKI:0.00
PC:10a50     Total:1      MisBP:0   MisRate:0.00%    MPKI:0.00
PC:11ba4     Total:1326      MisBP:0   MisRate:0.00%    MPKI:0.00
PC:11ba6     Total:1326      MisBP:0   MisRate:0.00%    MPKI:0.00
PC:10a64     Total:1      MisBP:0   MisRate:0.00%    MPKI:0.00
PC:11a5e     Total:1248      MisBP:0   MisRate:0.00%    MPKI:0.00
PC:11a62     Total:1248      MisBP:0   MisRate:0.00%    MPKI:0.00
PC:11a66     Total:1238      MisBP:0   MisRate:0.00%    MPKI:0.00
PC:11a68     Total:1237      MisBP:0   MisRate:0.00%    MPKI:0.00
PC:11a6c     Total:1237      MisBP:0   MisRate:0.00%    MPKI:0.00
PC:11708     Total:1479      MisBP:0   MisRate:0.00%    MPKI:0.00
PC:10a5a     Total:1      MisBP:0   MisRate:0.00%    MPKI:0.00
PC:11712     Total:1505      MisBP:0   MisRate:0.00%    MPKI:0.00
PC:118f0     Total:58302      MisBP:0   MisRate:0.00%    MPKI:0.00
PC:11716     Total:1458      MisBP:0   MisRate:0.00%    MPKI:0.00
PC:10a68     Total:1      MisBP:0   MisRate:0.00%    MPKI:0.00
PC:11726     Total:1470      MisBP:0   MisRate:0.00%    MPKI:0.00
PC:10a78     Total:1      MisBP:0   MisRate:0.00%    MPKI:0.00
PC:11738     Total:1340      MisBP:0   MisRate:0.00%    MPKI:0.00
PC:11754     Total:1094      MisBP:0   MisRate:0.00%    MPKI:0.00
PC:11758     Total:1092      MisBP:0   MisRate:0.00%    MPKI:0.00
PC:1175a     Total:1079      MisBP:0   MisRate:0.00%    MPKI:0.00
PC:10a2a     Total:162428      MisBP:0   MisRate:0.00%    MPKI:0.00
PC:11b08     Total:16928      MisBP:0   MisRate:0.00%    MPKI:0.00
PC:11b0c     Total:16928      MisBP:0   MisRate:0.00%    MPKI:0.00
PC:1190c     Total:68782      MisBP:0   MisRate:0.00%    MPKI:0.00
PC:11b0e     Total:16924      MisBP:0   MisRate:0.00%    MPKI:0.00
PC:1190e     Total:68761      MisBP:0   MisRate:0.00%    MPKI:0.00
PC:11b10     Total:16924      MisBP:0   MisRate:0.00%    MPKI:0.00
PC:11910     Total:68575      MisBP:0   MisRate:0.00%    MPKI:0.00
PC:11b12     Total:36272      MisBP:0   MisRate:0.00%    MPKI:0.00
PC:11b7e     Total:19381      MisBP:0   MisRate:0.00%    MPKI:0.00
PC:11b04     Total:16929      MisBP:0   MisRate:0.00%    MPKI:0.00
PC:11914     Total:68362      MisBP:0   MisRate:0.00%    MPKI:0.00
PC:11b16     Total:36272      MisBP:0   MisRate:0.00%    MPKI:0.00
PC:11b82     Total:142812      MisBP:0   MisRate:0.00%    MPKI:0.00
PC:10a2e     Total:1333566      MisBP:0   MisRate:0.00%    MPKI:0.00
PC:11b1a     Total:36073      MisBP:0   MisRate:0.00%    MPKI:0.00
PC:11b1e     Total:36073      MisBP:0   MisRate:0.00%    MPKI:0.00
PC:11b8a     Total:128811      MisBP:0   MisRate:0.00%    MPKI:0.00
PC:10a36     Total:1340192      MisBP:0   MisRate:0.00%    MPKI:0.00
PC:11b76     Total:42493      MisBP:0   MisRate:0.00%    MPKI:0.00
PC:11834     Total:2      MisBP:0   MisRate:0.00%    MPKI:0.00
PC:10a1c     Total:680619      MisBP:0   MisRate:0.00%    MPKI:0.00
PC:11b70     Total:15840      MisBP:0   MisRate:0.00%    MPKI:0.00
PC:11736     Total:1346      MisBP:0   MisRate:0.00%    MPKI:0.00
PC:11c70     Total:16762      MisBP:0   MisRate:0.00%    MPKI:0.00
PC:11836     Total:2      MisBP:0   MisRate:0.00%    MPKI:0.00
PC:1183a     Total:2      MisBP:0   MisRate:0.00%    MPKI:0.00
PC:10a22     Total:675318      MisBP:0   MisRate:0.00%    MPKI:0.00
PC:11920     Total:1164      MisBP:0   MisRate:0.00%    MPKI:0.00
PC:1173c     Total:1339      MisBP:0   MisRate:0.00%    MPKI:0.00
PC:11888     Total:7      MisBP:0   MisRate:0.00%    MPKI:0.00
PC:1183c     Total:3      MisBP:0   MisRate:0.00%    MPKI:0.00
PC:10a24     Total:673955      MisBP:0   MisRate:0.00%    MPKI:0.00
PC:11b78     Total:42493      MisBP:0   MisRate:0.00%    MPKI:0.00
PC:1173e     Total:1118      MisBP:0   MisRate:0.00%    MPKI:0.00
PC:11b00     Total:152529      MisBP:0   MisRate:0.00%    MPKI:0.00
PC:118f8     Total:57388      MisBP:0   MisRate:0.00%    MPKI:0.00
PC:118d4     Total:133162      MisBP:0   MisRate:0.00%    MPKI:0.00
PC:117fe     Total:1959      MisBP:0   MisRate:0.00%    MPKI:0.00
PC:11704     Total:15204      MisBP:0   MisRate:0.00%    MPKI:0.00
PC:11a32     Total:1697      MisBP:0   MisRate:0.00%    MPKI:0.00
PC:11c34     Total:44742      MisBP:0   MisRate:0.00%    MPKI:0.00
PC:117fa     Total:1985      MisBP:0   MisRate:0.00%    MPKI:0.00
PC:118ce     Total:135815      MisBP:0   MisRate:0.00%    MPKI:0.00
PC:118d0     Total:135398      MisBP:0   MisRate:0.00%    MPKI:0.00
PC:11cd4     Total:1231      MisBP:0   MisRate:0.00%    MPKI:0.00
PC:11c38     Total:1      MisBP:0   MisRate:0.00%    MPKI:0.00
PC:118d8     Total:131749      MisBP:0   MisRate:0.00%    MPKI:0.00
PC:11cdc     Total:1231      MisBP:0   MisRate:0.00%    MPKI:0.00
PC:118da     Total:130992      MisBP:0   MisRate:0.00%    MPKI:0.00
PC:118dc     Total:130472      MisBP:0   MisRate:0.00%    MPKI:0.00
PC:11ce0     Total:1      MisBP:0   MisRate:0.00%    MPKI:0.00
PC:118e2     Total:126626      MisBP:0   MisRate:0.00%    MPKI:0.00
PC:118e6     Total:1921      MisBP:0   MisRate:0.00%    MPKI:0.00
PC:118ea     Total:9573      MisBP:0   MisRate:0.00%    MPKI:0.00
PC:11b2c     Total:36069      MisBP:0   MisRate:0.00%    MPKI:0.00
PC:11b22     Total:36072      MisBP:0   MisRate:0.00%    MPKI:0.00
PC:10a3a     Total:103      MisBP:0   MisRate:0.00%    MPKI:0.00
PC:11b26     Total:36072      MisBP:0   MisRate:0.00%    MPKI:0.00
PC:10a3e     Total:528      MisBP:0   MisRate:0.00%    MPKI:0.00
PC:11928     Total:1155      MisBP:0   MisRate:0.00%    MPKI:0.00
PC:11b2a     Total:36070      MisBP:0   MisRate:0.00%    MPKI:0.00
PC:10a42     Total:263      MisBP:0   MisRate:0.00%    MPKI:0.00
PC:1192a     Total:55538      MisBP:0   MisRate:0.00%    MPKI:0.00
PC:1176e     Total:120971      MisBP:0   MisRate:0.00%    MPKI:0.00
PC:1192c     Total:55473      MisBP:0   MisRate:0.00%    MPKI:0.00
PC:11b2e     Total:33255      MisBP:0   MisRate:0.00%    MPKI:0.00
PC:11a2e     Total:1711      MisBP:0   MisRate:0.00%    MPKI:0.00
PC:11c30     Total:44743      MisBP:0   MisRate:0.00%    MPKI:0.00
PC:117f6     Total:1554      MisBP:0   MisRate:0.00%    MPKI:0.00
PC:11b34     Total:291874      MisBP:0   MisRate:0.00%    MPKI:0.00
PC:11b38     Total:145924      MisBP:0   MisRate:0.00%    MPKI:0.00
PC:11a36     Total:1696      MisBP:0   MisRate:0.00%    MPKI:0.00
PC:11b4a     Total:159      MisBP:0   MisRate:0.00%    MPKI:0.00
PC:109ea     Total:9      MisBP:0   MisRate:0.00%    MPKI:0.00
PC:11b40     Total:144251      MisBP:0   MisRate:0.00%    MPKI:0.00
PC:109ec     Total:9      MisBP:0   MisRate:0.00%    MPKI:0.00
PC:109ee     Total:9      MisBP:0   MisRate:0.00%    MPKI:0.00
PC:11b44     Total:144244      MisBP:0   MisRate:0.00%    MPKI:0.00
PC:109f0     Total:9      MisBP:0   MisRate:0.00%    MPKI:0.00
PC:11b46     Total:144235      MisBP:0   MisRate:0.00%    MPKI:0.00
PC:109f2     Total:9      MisBP:0   MisRate:0.00%    MPKI:0.00
PC:109f4     Total:9      MisBP:0   MisRate:0.00%    MPKI:0.00
PC:109e6     Total:9      MisBP:0   MisRate:0.00%    MPKI:0.00
PC:109f6     Total:9      MisBP:0   MisRate:0.00%    MPKI:0.00
PC:109f8     Total:9      MisBP:0   MisRate:0.00%    MPKI:0.00
PC:11b4e     Total:610      MisBP:0   MisRate:0.00%    MPKI:0.00
PC:109fc     Total:182      MisBP:0   MisRate:0.00%    MPKI:0.00
PC:11b52     Total:305      MisBP:0   MisRate:0.00%    MPKI:0.00
PC:109fe     Total:158716      MisBP:0   MisRate:0.00%    MPKI:0.00
PC:11ba2     Total:1329      MisBP:0   MisRate:0.00%    MPKI:0.00
PC:10a4e     Total:180      MisBP:0   MisRate:0.00%    MPKI:0.00
PC:11a72     Total:1236      MisBP:0   MisRate:0.00%    MPKI:0.00
PC:117ec     Total:222      MisBP:0   MisRate:0.00%    MPKI:0.00
PC:117ee     Total:218      MisBP:0   MisRate:0.00%    MPKI:0.00
PC:117f0     Total:218      MisBP:0   MisRate:0.00%    MPKI:0.00
PC:11838     Total:2      MisBP:0   MisRate:0.00%    MPKI:0.00
PC:1185e     Total:1781      MisBP:0   MisRate:0.00%    MPKI:0.00
PC:11874     Total:50023      MisBP:0   MisRate:0.00%    MPKI:0.00
PC:11878     Total:49797      MisBP:0   MisRate:0.00%    MPKI:0.00
PC:11a6e     Total:1236      MisBP:0   MisRate:0.00%    MPKI:0.00
PC:10a7c     Total:1      MisBP:0   MisRate:0.00%    MPKI:0.00
PC:11a76     Total:1236      MisBP:0   MisRate:0.00%    MPKI:0.00
PC:11a7a     Total:11      MisBP:0   MisRate:0.00%    MPKI:0.00
PC:11a7c     Total:11      MisBP:0   MisRate:0.00%    MPKI:0.00
PC:109dc     Total:18      MisBP:0   MisRate:0.00%    MPKI:0.00
PC:11b32     Total:33253      MisBP:0   MisRate:0.00%    MPKI:0.00
PC:109de     Total:9      MisBP:0   MisRate:0.00%    MPKI:0.00
PC:109e2     Total:9      MisBP:0   MisRate:0.00%    MPKI:0.00
PC:11b3a     Total:145911      MisBP:0   MisRate:0.00%    MPKI:0.00
PC:1199e     Total:1432      MisBP:0   MisRate:0.00%    MPKI:0.00
PC:11a9e     Total:1      MisBP:0   MisRate:0.00%    MPKI:0.00
PC:11aa0     Total:1      MisBP:0   MisRate:0.00%    MPKI:0.00
PC:11aa2     Total:1      MisBP:0   MisRate:0.00%    MPKI:0.00
PC:11aa4     Total:1      MisBP:0   MisRate:0.00%    MPKI:0.00
PC:11aa6     Total:1      MisBP:0   MisRate:0.00%    MPKI:0.00
PC:11998     Total:1436      MisBP:0   MisRate:0.00%    MPKI:0.00
PC:1199a     Total:1432      MisBP:0   MisRate:0.00%    MPKI:0.00
PC:1199c     Total:1432      MisBP:0   MisRate:0.00%    MPKI:0.00
PC:11a9c     Total:1      MisBP:0   MisRate:0.00%    MPKI:0.00
PC:119a0     Total:1432      MisBP:0   MisRate:0.00%    MPKI:0.00
PC:11b90     Total:13563      MisBP:0   MisRate:0.00%    MPKI:0.00
PC:10a66     Total:1      MisBP:0   MisRate:0.00%    MPKI:0.00
PC:11bba     Total:1310      MisBP:0   MisRate:0.00%    MPKI:0.00
PC:10a6a     Total:1      MisBP:0   MisRate:0.00%    MPKI:0.00
PC:11bbe     Total:1301      MisBP:0   MisRate:0.00%    MPKI:0.00
PC:11bd2     Total:101304      MisBP:0   MisRate:0.00%    MPKI:0.00
PC:11bda     Total:50493      MisBP:0   MisRate:0.00%    MPKI:0.00
PC:11a84     Total:244      MisBP:0   MisRate:0.00%    MPKI:0.00
PC:11b80     Total:142820      MisBP:0   MisRate:0.00%    MPKI:0.00
PC:10a2c     Total:156538      MisBP:0   MisRate:0.00%    MPKI:0.00
PC:11b84     Total:142802      MisBP:0   MisRate:0.00%    MPKI:0.00
PC:10a30     Total:1317186      MisBP:0   MisRate:0.00%    MPKI:0.00
PC:11b88     Total:128841      MisBP:0   MisRate:0.00%    MPKI:0.00
PC:10a34     Total:1353480      MisBP:0   MisRate:0.00%    MPKI:0.00
PC:11b8c     Total:199739      MisBP:0   MisRate:0.00%    MPKI:0.00
PC:11a80     Total:244      MisBP:0   MisRate:0.00%    MPKI:0.00
PC:117ea     Total:222      MisBP:0   MisRate:0.00%    MPKI:0.00
PC:11a86     Total:243      MisBP:0   MisRate:0.00%    MPKI:0.00
PC:11a8a     Total:243      MisBP:0   MisRate:0.00%    MPKI:0.00
PC:11a8c     Total:1      MisBP:0   MisRate:0.00%    MPKI:0.00
PC:11a90     Total:1      MisBP:0   MisRate:0.00%    MPKI:0.00
PC:11a92     Total:1      MisBP:0   MisRate:0.00%    MPKI:0.00
PC:11a94     Total:1      MisBP:0   MisRate:0.00%    MPKI:0.00
PC:11a96     Total:1      MisBP:0   MisRate:0.00%    MPKI:0.00
PC:11a9a     Total:1      MisBP:0   MisRate:0.00%    MPKI:0.00
PC:1179a     Total:1670      MisBP:0   MisRate:0.00%    MPKI:0.00
PC:11788     Total:1687      MisBP:0   MisRate:0.00%    MPKI:0.00
PC:1178a     Total:1687      MisBP:0   MisRate:0.00%    MPKI:0.00
PC:1178c     Total:1686      MisBP:0   MisRate:0.00%    MPKI:0.00
PC:1178e     Total:1686      MisBP:0   MisRate:0.00%    MPKI:0.00
PC:11790     Total:1686      MisBP:0   MisRate:0.00%    MPKI:0.00
PC:11792     Total:1677      MisBP:0   MisRate:0.00%    MPKI:0.00
PC:11794     Total:1667      MisBP:0   MisRate:0.00%    MPKI:0.00
PC:11bce     Total:50771      MisBP:0   MisRate:0.00%    MPKI:0.00
PC:11796     Total:1657      MisBP:0   MisRate:0.00%    MPKI:0.00
PC:11786     Total:1691      MisBP:0   MisRate:0.00%    MPKI:0.00
PC:1179c     Total:1667      MisBP:0   MisRate:0.00%    MPKI:0.00
PC:11bd6     Total:50571      MisBP:0   MisRate:0.00%    MPKI:0.00
PC:1179e     Total:1584      MisBP:0   MisRate:0.00%    MPKI:0.00
PC:11bd8     Total:50538      MisBP:0   MisRate:0.00%    MPKI:0.00
PC:117a2     Total:2147      MisBP:0   MisRate:0.00%    MPKI:0.00
PC:11bdc     Total:50443      MisBP:0   MisRate:0.00%    MPKI:0.00
PC:117a4     Total:2147      MisBP:0   MisRate:0.00%    MPKI:0.00
PC:11bde     Total:50394      MisBP:0   MisRate:0.00%    MPKI:0.00
PC:11bb0     Total:1315      MisBP:0   MisRate:0.00%    MPKI:0.00
PC:10a54     Total:1      MisBP:0   MisRate:0.00%    MPKI:0.00
PC:11ba8     Total:1325      MisBP:0   MisRate:0.00%    MPKI:0.00
PC:11770     Total:120278      MisBP:0   MisRate:0.00%    MPKI:0.00
PC:10a58     Total:4      MisBP:0   MisRate:0.00%    MPKI:0.00
PC:11bac     Total:1325      MisBP:0   MisRate:0.00%    MPKI:0.00
PC:11774     Total:112381      MisBP:0   MisRate:0.00%    MPKI:0.00
PC:11776     Total:112195      MisBP:0   MisRate:0.00%    MPKI:0.00
PC:10a5c     Total:1      MisBP:0   MisRate:0.00%    MPKI:0.00
PC:117a6     Total:2146      MisBP:0   MisRate:0.00%    MPKI:0.00
PC:10a5e     Total:1      MisBP:0   MisRate:0.00%    MPKI:0.00
PC:11bb2     Total:1315      MisBP:0   MisRate:0.00%    MPKI:0.00
PC:1177a     Total:1751      MisBP:0   MisRate:0.00%    MPKI:0.00
PC:1177c     Total:1747      MisBP:0   MisRate:0.00%    MPKI:0.00
PC:10a62     Total:1      MisBP:0   MisRate:0.00%    MPKI:0.00
PC:11bb6     Total:1315      MisBP:0   MisRate:0.00%    MPKI:0.00
PC:1177e     Total:1689      MisBP:0   MisRate:0.00%    MPKI:0.00
PC:11782     Total:1694      MisBP:0   MisRate:0.00%    MPKI:0.00
PC:117d0     Total:2236      MisBP:0   MisRate:0.00%    MPKI:0.00
PC:117bc     Total:2301      MisBP:0   MisRate:0.00%    MPKI:0.00
PC:117be     Total:2300      MisBP:0   MisRate:0.00%    MPKI:0.00
PC:117c0     Total:2238      MisBP:0   MisRate:0.00%    MPKI:0.00
PC:117c2     Total:2238      MisBP:0   MisRate:0.00%    MPKI:0.00
PC:117c4     Total:2241      MisBP:0   MisRate:0.00%    MPKI:0.00
PC:117c6     Total:2241      MisBP:0   MisRate:0.00%    MPKI:0.00
PC:117c8     Total:2239      MisBP:0   MisRate:0.00%    MPKI:0.00
PC:117cc     Total:2236      MisBP:0   MisRate:0.00%    MPKI:0.00
PC:117ba     Total:2301      MisBP:0   MisRate:0.00%    MPKI:0.00
PC:117d2     Total:2235      MisBP:0   MisRate:0.00%    MPKI:0.00
PC:117d6     Total:2180      MisBP:0   MisRate:0.00%    MPKI:0.00
PC:117d8     Total:2179      MisBP:0   MisRate:0.00%    MPKI:0.00
PC:117da     Total:2178      MisBP:0   MisRate:0.00%    MPKI:0.00
PC:117dc     Total:2178      MisBP:0   MisRate:0.00%    MPKI:0.00
PC:117de     Total:2181      MisBP:0   MisRate:0.00%    MPKI:0.00
PC:117e2     Total:2179      MisBP:0   MisRate:0.00%    MPKI:0.00
PC:117e8     Total:236      MisBP:0   MisRate:0.00%    MPKI:0.00
PC:11bea     Total:49613      MisBP:0   MisRate:0.00%    MPKI:0.00
PC:11be0     Total:50380      MisBP:0   MisRate:0.00%    MPKI:0.00
PC:11be2     Total:50330      MisBP:0   MisRate:0.00%    MPKI:0.00
PC:117aa     Total:2024      MisBP:0   MisRate:0.00%    MPKI:0.00
PC:11be4     Total:50315      MisBP:0   MisRate:0.00%    MPKI:0.00
PC:117ac     Total:2330      MisBP:0   MisRate:0.00%    MPKI:0.00
PC:11be6     Total:50288      MisBP:0   MisRate:0.00%    MPKI:0.00
PC:117ae     Total:2330      MisBP:0   MisRate:0.00%    MPKI:0.00
PC:117b0     Total:2324      MisBP:0   MisRate:0.00%    MPKI:0.00
PC:11c76     Total:2298      MisBP:0   MisRate:0.00%    MPKI:0.00
PC:117b2     Total:2309      MisBP:0   MisRate:0.00%    MPKI:0.00
PC:11bec     Total:49606      MisBP:0   MisRate:0.00%    MPKI:0.00
PC:117b4     Total:2309      MisBP:0   MisRate:0.00%    MPKI:0.00
PC:117f2     Total:1701      MisBP:0   MisRate:0.00%    MPKI:0.00
PC:117f8     Total:1554      MisBP:0   MisRate:0.00%    MPKI:0.00
PC:1180a     Total:1897      MisBP:0   MisRate:0.00%    MPKI:0.00
PC:11816     Total:1898      MisBP:0   MisRate:0.00%    MPKI:0.00
PC:117b8     Total:2308      MisBP:0   MisRate:0.00%    MPKI:0.00
PC:119c8     Total:3359      MisBP:0   MisRate:0.00%    MPKI:0.00
PC:119dc     Total:997      MisBP:0   MisRate:0.00%    MPKI:0.00
PC:119da     Total:998      MisBP:0   MisRate:0.00%    MPKI:0.00
PC:119d8     Total:999      MisBP:0   MisRate:0.00%    MPKI:0.00
PC:119d6     Total:1000      MisBP:0   MisRate:0.00%    MPKI:0.00
PC:119d2     Total:2001      MisBP:0   MisRate:0.00%    MPKI:0.00
PC:119d0     Total:3359      MisBP:0   MisRate:0.00%    MPKI:0.00
PC:119ce     Total:3359      MisBP:0   MisRate:0.00%    MPKI:0.00
PC:119cc     Total:3359      MisBP:0   MisRate:0.00%    MPKI:0.00
PC:119ca     Total:3359      MisBP:0   MisRate:0.00%    MPKI:0.00
PC:119e0     Total:1864      MisBP:0   MisRate:0.00%    MPKI:0.00
PC:119c6     Total:3359      MisBP:0   MisRate:0.00%    MPKI:0.00
PC:119c4     Total:3359      MisBP:0   MisRate:0.00%    MPKI:0.00
PC:119c0     Total:3359      MisBP:0   MisRate:0.00%    MPKI:0.00
PC:119be     Total:3368      MisBP:0   MisRate:0.00%    MPKI:0.00
PC:119bc     Total:3368      MisBP:0   MisRate:0.00%    MPKI:0.00
PC:119b8     Total:3368      MisBP:0   MisRate:0.00%    MPKI:0.00
PC:119b6     Total:3418      MisBP:0   MisRate:0.00%    MPKI:0.00
PC:119b4     Total:3418      MisBP:0   MisRate:0.00%    MPKI:0.00
PC:11894     Total:946      MisBP:0   MisRate:0.00%    MPKI:0.00
PC:118de     Total:127514      MisBP:0   MisRate:0.00%    MPKI:0.00
PC:118d6     Total:132867      MisBP:0   MisRate:0.00%    MPKI:0.00
PC:118d2     Total:133406      MisBP:0   MisRate:0.00%    MPKI:0.00
PC:118c4     Total:314020      MisBP:0   MisRate:0.00%    MPKI:0.00
PC:118ae     Total:83565      MisBP:0   MisRate:0.00%    MPKI:0.00
PC:118aa     Total:83926      MisBP:0   MisRate:0.00%    MPKI:0.00
PC:11ce4     Total:1      MisBP:0   MisRate:0.00%    MPKI:0.00
PC:1189c     Total:941      MisBP:0   MisRate:0.00%    MPKI:0.00
PC:119b2     Total:3418      MisBP:0   MisRate:0.00%    MPKI:0.00
PC:119f2     Total:1872      MisBP:0   MisRate:0.00%    MPKI:0.00
PC:119f0     Total:1866      MisBP:0   MisRate:0.00%    MPKI:0.00
PC:119ee     Total:25      MisBP:0   MisRate:0.00%    MPKI:0.00
PC:119ec     Total:25      MisBP:0   MisRate:0.00%    MPKI:0.00
PC:119ea     Total:25      MisBP:0   MisRate:0.00%    MPKI:0.00
PC:119e6     Total:1870      MisBP:0   MisRate:0.00%    MPKI:0.00
PC:119e4     Total:1862      MisBP:0   MisRate:0.00%    MPKI:0.00
PC:119e2     Total:1863      MisBP:0   MisRate:0.00%    MPKI:0.00
PC:11734     Total:1346      MisBP:0   MisRate:0.00%    MPKI:0.00
PC:11a38     Total:1693      MisBP:0   MisRate:0.00%    MPKI:0.00
PC:11c3a     Total:13279802      MisBP:0   MisRate:0.00%    MPKI:0.00
PC:11b3c     Total:145897      MisBP:0   MisRate:0.00%    MPKI:0.00
PC:118ac     Total:83677      MisBP:0   MisRate:0.00%    MPKI:0.00
PC:11ce6     Total:1      MisBP:0   MisRate:0.00%    MPKI:0.00
PC:11cb0     Total:8      MisBP:0   MisRate:0.00%    MPKI:0.00
PC:11876     Total:50023      MisBP:0   MisRate:0.00%    MPKI:0.00
PC:11cac     Total:8      MisBP:0   MisRate:0.00%    MPKI:0.00
PC:11880     Total:8688      MisBP:0   MisRate:0.00%    MPKI:0.00
PC:11870     Total:1183      MisBP:0   MisRate:0.00%    MPKI:0.00
PC:118a4     Total:126181      MisBP:0   MisRate:0.00%    MPKI:0.00
PC:11cde     Total:1      MisBP:0   MisRate:0.00%    MPKI:0.00
PC:11ca6     Total:43645      MisBP:0   MisRate:0.00%    MPKI:0.00
PC:1186c     Total:52441      MisBP:0   MisRate:0.00%    MPKI:0.00
PC:118a0     Total:126399      MisBP:0   MisRate:0.00%    MPKI:0.00
PC:1186a     Total:52850      MisBP:0   MisRate:0.00%    MPKI:0.00
PC:1189e     Total:939      MisBP:0   MisRate:0.00%    MPKI:0.00
PC:118c6     Total:313584      MisBP:0   MisRate:0.00%    MPKI:0.00
PC:119b0     Total:3411      MisBP:0   MisRate:0.00%    MPKI:0.00
PC:119ac     Total:3411      MisBP:0   MisRate:0.00%    MPKI:0.00
PC:119a8     Total:3411      MisBP:0   MisRate:0.00%    MPKI:0.00
PC:119a6     Total:3411      MisBP:0   MisRate:0.00%    MPKI:0.00
PC:119a4     Total:3411      MisBP:0   MisRate:0.00%    MPKI:0.00
PC:11752     Total:1094      MisBP:0   MisRate:0.00%    MPKI:0.00
PC:11750     Total:1095      MisBP:0   MisRate:0.00%    MPKI:0.00
PC:1174c     Total:1095      MisBP:0   MisRate:0.00%    MPKI:0.00
PC:118e8     Total:1921      MisBP:0   MisRate:0.00%    MPKI:0.00
PC:11cca     Total:7036      MisBP:0   MisRate:0.00%    MPKI:0.00
PC:118c2     Total:314644      MisBP:0   MisRate:0.00%    MPKI:0.00
PC:11cfc     Total:1      MisBP:0   MisRate:0.00%    MPKI:0.00
PC:11cc6     Total:7036      MisBP:0   MisRate:0.00%    MPKI:0.00
PC:1188c     Total:970      MisBP:0   MisRate:0.00%    MPKI:0.00
PC:118b6     Total:80997      MisBP:0   MisRate:0.00%    MPKI:0.00
PC:11cf0     Total:1      MisBP:0   MisRate:0.00%    MPKI:0.00
PC:11cba     Total:1239      MisBP:0   MisRate:0.00%    MPKI:0.00
PC:11c14     Total:1124      MisBP:0   MisRate:0.00%    MPKI:0.00
PC:10a1e     Total:680402      MisBP:0   MisRate:0.00%    MPKI:0.00
PC:11bc6     Total:7      MisBP:0   MisRate:0.00%    MPKI:0.00
PC:11c2e     Total:1119      MisBP:0   MisRate:0.00%    MPKI:0.00
PC:11c2a     Total:1119      MisBP:0   MisRate:0.00%    MPKI:0.00
PC:11c26     Total:1121      MisBP:0   MisRate:0.00%    MPKI:0.00
PC:11c24     Total:1121      MisBP:0   MisRate:0.00%    MPKI:0.00
PC:11c20     Total:1122      MisBP:0   MisRate:0.00%    MPKI:0.00
PC:11c1c     Total:1123      MisBP:0   MisRate:0.00%    MPKI:0.00
PC:11c18     Total:1124      MisBP:0   MisRate:0.00%    MPKI:0.00
PC:10a10     Total:680065      MisBP:0   MisRate:0.00%    MPKI:0.00
PC:11c12     Total:1127      MisBP:0   MisRate:0.00%    MPKI:0.00
PC:11c0e     Total:1127      MisBP:0   MisRate:0.00%    MPKI:0.00
PC:11c0a     Total:49022      MisBP:0   MisRate:0.00%    MPKI:0.00
PC:11c08     Total:49128      MisBP:0   MisRate:0.00%    MPKI:0.00
PC:11c04     Total:49134      MisBP:0   MisRate:0.00%    MPKI:0.00
PC:11c02     Total:49148      MisBP:0   MisRate:0.00%    MPKI:0.00
PC:11c00     Total:49157      MisBP:0   MisRate:0.00%    MPKI:0.00
PC:11bfc     Total:49468      MisBP:0   MisRate:0.00%    MPKI:0.00
PC:1184a     Total:2      MisBP:0   MisRate:0.00%    MPKI:0.00
PC:1185a     Total:14      MisBP:0   MisRate:0.00%    MPKI:0.00
PC:11858     Total:2      MisBP:0   MisRate:0.00%    MPKI:0.00
PC:11856     Total:2      MisBP:0   MisRate:0.00%    MPKI:0.00
PC:11854     Total:2      MisBP:0   MisRate:0.00%    MPKI:0.00
PC:11852     Total:2      MisBP:0   MisRate:0.00%    MPKI:0.00
PC:11850     Total:2      MisBP:0   MisRate:0.00%    MPKI:0.00
PC:1184e     Total:2      MisBP:0   MisRate:0.00%    MPKI:0.00
PC:1184c     Total:2      MisBP:0   MisRate:0.00%    MPKI:0.00
PC:11bfa     Total:49475      MisBP:0   MisRate:0.00%    MPKI:0.00
PC:11848     Total:2      MisBP:0   MisRate:0.00%    MPKI:0.00
PC:11846     Total:2      MisBP:0   MisRate:0.00%    MPKI:0.00
PC:11844     Total:2      MisBP:0   MisRate:0.00%    MPKI:0.00
PC:11842     Total:2      MisBP:0   MisRate:0.00%    MPKI:0.00
PC:11840     Total:2      MisBP:0   MisRate:0.00%    MPKI:0.00
PC:11884     Total:84      MisBP:0   MisRate:0.00%    MPKI:0.00
PC:10a46     Total:185413      MisBP:0   MisRate:0.00%    MPKI:0.00
PC:10a0c     Total:154984      MisBP:0   MisRate:0.00%    MPKI:0.00
PC:11a10     Total:1760      MisBP:0   MisRate:0.00%    MPKI:0.00
PC:11a28     Total:1714      MisBP:0   MisRate:0.00%    MPKI:0.00
PC:11a24     Total:1726      MisBP:0   MisRate:0.00%    MPKI:0.00
PC:11a22     Total:1731      MisBP:0   MisRate:0.00%    MPKI:0.00
PC:11a20     Total:1735      MisBP:0   MisRate:0.00%    MPKI:0.00
PC:11a1c     Total:1738      MisBP:0   MisRate:0.00%    MPKI:0.00
PC:11a1a     Total:1760      MisBP:0   MisRate:0.00%    MPKI:0.00
PC:11a18     Total:1760      MisBP:0   MisRate:0.00%    MPKI:0.00
PC:11a14     Total:1760      MisBP:0   MisRate:0.00%    MPKI:0.00
PC:11a2a     Total:1712      MisBP:0   MisRate:0.00%    MPKI:0.00
PC:11a0c     Total:1766      MisBP:0   MisRate:0.00%    MPKI:0.00
PC:11a08     Total:1776      MisBP:0   MisRate:0.00%    MPKI:0.00
PC:11a04     Total:1777      MisBP:0   MisRate:0.00%    MPKI:0.00
PC:11a00     Total:1780      MisBP:0   MisRate:0.00%    MPKI:0.00
PC:119fc     Total:1858      MisBP:0   MisRate:0.00%    MPKI:0.00
PC:119fa     Total:1858      MisBP:0   MisRate:0.00%    MPKI:0.00
PC:119f8     Total:1868      MisBP:0   MisRate:0.00%    MPKI:0.00
PC:119f6     Total:1869      MisBP:0   MisRate:0.00%    MPKI:0.00
PC:1191a     Total:67534      MisBP:0   MisRate:0.00%    MPKI:0.00
PC:11bf6     Total:49500      MisBP:0   MisRate:0.00%    MPKI:0.00
PC:11bf2     Total:49503      MisBP:0   MisRate:0.00%    MPKI:0.00
PC:11bf0     Total:49531      MisBP:0   MisRate:0.00%    MPKI:0.00
PC:11bee     Total:49538      MisBP:0   MisRate:0.00%    MPKI:0.00
PC:1192e     Total:65578      MisBP:0   MisRate:0.00%    MPKI:0.00
PC:11926     Total:1155      MisBP:0   MisRate:0.00%    MPKI:0.00
PC:11922     Total:1158      MisBP:0   MisRate:0.00%    MPKI:0.00
PC:1191e     Total:1170      MisBP:0   MisRate:0.00%    MPKI:0.00
PC:11caa     Total:8      MisBP:0   MisRate:0.00%    MPKI:0.00
PC:11916     Total:68265      MisBP:0   MisRate:0.00%    MPKI:0.00
PC:11912     Total:68486      MisBP:0   MisRate:0.00%    MPKI:0.00
PC:118fc     Total:57293      MisBP:0   MisRate:0.00%    MPKI:0.00
PC:118f4     Total:58177      MisBP:0   MisRate:0.00%    MPKI:0.00
PC:118ee     Total:58417      MisBP:0   MisRate:0.00%    MPKI:0.00
PC:11cfa     Total:1      MisBP:0   MisRate:0.00%    MPKI:0.00
PC:11a3a     Total:1693      MisBP:0   MisRate:0.00%    MPKI:0.00
PC:11a30     Total:1710      MisBP:0   MisRate:0.00%    MPKI:0.00
PC:11748     Total:1065      MisBP:0   MisRate:0.00%    MPKI:0.00
PC:11808     Total:603      MisBP:0   MisRate:0.00%    MPKI:0.00
PC:11c42     Total:13272010      MisBP:0   MisRate:0.00%    MPKI:0.00
PC:11728     Total:1470      MisBP:0   MisRate:0.00%    MPKI:0.00
PC:11cb8     Total:1239      MisBP:0   MisRate:0.00%    MPKI:0.00
PC:11c62     Total:13316495      MisBP:0   MisRate:0.00%    MPKI:0.00
PC:11cee     Total:1      MisBP:0   MisRate:0.00%    MPKI:0.00
PC:118b4     Total:82520      MisBP:0   MisRate:0.00%    MPKI:0.00
PC:10a76     Total:1      MisBP:0   MisRate:0.00%    MPKI:0.00
PC:11828     Total:2      MisBP:0   MisRate:0.00%    MPKI:0.00
PC:11bca     Total:1252      MisBP:0   MisRate:0.00%    MPKI:0.00
PC:11724     Total:1470      MisBP:0   MisRate:0.00%    MPKI:0.00
PC:11b5e     Total:143999      MisBP:0   MisRate:0.00%    MPKI:0.00
PC:10a0a     Total:155055      MisBP:0   MisRate:0.00%    MPKI:0.00
PC:11822     Total:3      MisBP:0   MisRate:0.00%    MPKI:0.00
PC:11c5c     Total:13327872      MisBP:0   MisRate:0.00%    MPKI:0.00
PC:1170a     Total:1487      MisBP:0   MisRate:0.00%    MPKI:0.00
PC:11c80     Total:2296      MisBP:0   MisRate:0.00%    MPKI:0.00
PC:10a60     Total:1      MisBP:0   MisRate:0.00%    MPKI:0.00
PC:1170e     Total:1494      MisBP:0   MisRate:0.00%    MPKI:0.00
PC:1180c     Total:1897      MisBP:0   MisRate:0.00%    MPKI:0.00
PC:11c64     Total:13312761      MisBP:0   MisRate:0.00%    MPKI:0.00
PC:11c46     Total:13270205      MisBP:0   MisRate:0.00%    MPKI:0.00
PC:1182a     Total:2      MisBP:0   MisRate:0.00%    MPKI:0.00
PC:11cbc     Total:1239      MisBP:0   MisRate:0.00%    MPKI:0.00
PC:10a12     Total:826607      MisBP:0   MisRate:0.00%    MPKI:0.00
PC:118b8     Total:80879      MisBP:0   MisRate:0.00%    MPKI:0.00
PC:11c82     Total:2295      MisBP:0   MisRate:0.00%    MPKI:0.00
PC:1172c     Total:1385      MisBP:0   MisRate:0.00%    MPKI:0.00
PC:11710     Total:1494      MisBP:0   MisRate:0.00%    MPKI:0.00
PC:1180e     Total:1898      MisBP:0   MisRate:0.00%    MPKI:0.00
PC:11c58     Total:13336614      MisBP:0   MisRate:0.00%    MPKI:0.00
PC:10a26     Total:673625      MisBP:0   MisRate:0.00%    MPKI:0.00
PC:11c5e     Total:13322642      MisBP:0   MisRate:0.00%    MPKI:0.00
PC:11c78     Total:2297      MisBP:0   MisRate:0.00%    MPKI:0.00
PC:11804     Total:604      MisBP:0   MisRate:0.00%    MPKI:0.00
PC:11c3e     Total:13278991      MisBP:0   MisRate:0.00%    MPKI:0.00
PC:1187a     Total:49797      MisBP:0   MisRate:0.00%    MPKI:0.00
PC:11824     Total:2      MisBP:0   MisRate:0.00%    MPKI:0.00
PC:11cb4     Total:8      MisBP:0   MisRate:0.00%    MPKI:0.00
PC:11cea     Total:2      MisBP:0   MisRate:0.00%    MPKI:0.00
PC:118b0     Total:83538      MisBP:0   MisRate:0.00%    MPKI:0.00
PC:11720     Total:1471      MisBP:0   MisRate:0.00%    MPKI:0.00
PC:11b5a     Total:144024      MisBP:0   MisRate:0.00%    MPKI:0.00
PC:10a06     Total:156895      MisBP:0   MisRate:0.00%    MPKI:0.00
PC:11c60     Total:13319152      MisBP:0   MisRate:0.00%    MPKI:0.00
PC:11b62     Total:143995      MisBP:0   MisRate:0.00%    MPKI:0.00
PC:11cd8     Total:1231      MisBP:0   MisRate:0.00%    MPKI:0.00
PC:118ca     Total:188228      MisBP:0   MisRate:0.00%    MPKI:0.00
PC:11c40     Total:13272860      MisBP:0   MisRate:0.00%    MPKI:0.00
PC:11a3e     Total:1693      MisBP:0   MisRate:0.00%    MPKI:0.00
PC:1187c     Total:49460      MisBP:0   MisRate:0.00%    MPKI:0.00
PC:11cb6     Total:8      MisBP:0   MisRate:0.00%    MPKI:0.00
PC:118b2     Total:83492      MisBP:0   MisRate:0.00%    MPKI:0.00
PC:10a74     Total:1      MisBP:0   MisRate:0.00%    MPKI:0.00
PC:11bc8     Total:1252      MisBP:0   MisRate:0.00%    MPKI:0.00
PC:11722     Total:1471      MisBP:0   MisRate:0.00%    MPKI:0.00
PC:11b5c     Total:144020      MisBP:0   MisRate:0.00%    MPKI:0.00
PC:10a08     Total:155093      MisBP:0   MisRate:0.00%    MPKI:0.00
PC:11820     Total:3      MisBP:0   MisRate:0.00%    MPKI:0.00
PC:11c5a     Total:13332182      MisBP:0   MisRate:0.00%    MPKI:0.00
PC:11c7c     Total:2297      MisBP:0   MisRate:0.00%    MPKI:0.00
PC:11896     Total:944      MisBP:0   MisRate:0.00%    MPKI:0.00
PC:11b6a     Total:32100      MisBP:0   MisRate:0.00%    MPKI:0.00
PC:11c86     Total:2295      MisBP:0   MisRate:0.00%    MPKI:0.00
PC:11c88     Total:2294      MisBP:0   MisRate:0.00%    MPKI:0.00
PC:11c8a     Total:2293      MisBP:0   MisRate:0.00%    MPKI:0.00
PC:11c8e     Total:2292      MisBP:0   MisRate:0.00%    MPKI:0.00
PC:11c90     Total:2292      MisBP:0   MisRate:0.00%    MPKI:0.00
PC:11c92     Total:2290      MisBP:0   MisRate:0.00%    MPKI:0.00
PC:1188e     Total:6745      MisBP:0   MisRate:0.00%    MPKI:0.00
PC:11c96     Total:43997      MisBP:0   MisRate:0.00%    MPKI:0.00
PC:11ccc     Total:7036      MisBP:0   MisRate:0.00%    MPKI:0.00
PC:11c6a     Total:13296174      MisBP:0   MisRate:0.00%    MPKI:0.00
PC:11892     Total:948      MisBP:0   MisRate:0.00%    MPKI:0.00
PC:11830     Total:2      MisBP:0   MisRate:0.00%    MPKI:0.00
PC:11c9a     Total:43997      MisBP:0   MisRate:0.00%    MPKI:0.00
PC:11c66     Total:13305023      MisBP:0   MisRate:0.00%    MPKI:0.00
PC:10a18     Total:703581      MisBP:0   MisRate:0.00%    MPKI:0.00
PC:11732     Total:1346      MisBP:0   MisRate:0.00%    MPKI:0.00
PC:11862     Total:53071      MisBP:0   MisRate:0.00%    MPKI:0.00
PC:11c9c     Total:43997      MisBP:0   MisRate:0.00%    MPKI:0.00
PC:11cd2     Total:1231      MisBP:0   MisRate:0.00%    MPKI:0.00
PC:11898     Total:944      MisBP:0   MisRate:0.00%    MPKI:0.00
PC:11c6c     Total:13292416      MisBP:0   MisRate:0.00%    MPKI:0.00
PC:11864     Total:53060      MisBP:0   MisRate:0.00%    MPKI:0.00
PC:11832     Total:2      MisBP:0   MisRate:0.00%    MPKI:0.00
PC:10a1a     Total:703290      MisBP:0   MisRate:0.00%    MPKI:0.00
PC:11c9e     Total:43997      MisBP:0   MisRate:0.00%    MPKI:0.00
PC:11868     Total:52853      MisBP:0   MisRate:0.00%    MPKI:0.00
PC:11ca2     Total:43997      MisBP:0   MisRate:0.00%    MPKI:0.00
PC:11b6e     Total:15840      MisBP:0   MisRate:0.00%    MPKI:0.00
PC:1182e     Total:2      MisBP:0   MisRate:0.00%    MPKI:0.00
PC:11c48     Total:13317237      MisBP:0   MisRate:0.00%    MPKI:0.00
PC:11cbe     Total:1235      MisBP:0   MisRate:0.00%    MPKI:0.00
PC:11cf4     Total:1      MisBP:0   MisRate:0.00%    MPKI:0.00
PC:118ba     Total:80843      MisBP:0   MisRate:0.00%    MPKI:0.00
PC:11810     Total:1898      MisBP:0   MisRate:0.00%    MPKI:0.00
PC:11c4a     Total:13312949      MisBP:0   MisRate:0.00%    MPKI:0.00
PC:11812     Total:1898      MisBP:0   MisRate:0.00%    MPKI:0.00
PC:1182c     Total:2      MisBP:0   MisRate:0.00%    MPKI:0.00
PC:10a14     Total:826370      MisBP:0   MisRate:0.00%    MPKI:0.00
PC:11cc2     Total:7036      MisBP:0   MisRate:0.00%    MPKI:0.00
PC:118be     Total:199294      MisBP:0   MisRate:0.00%    MPKI:0.00
PC:11c4e     Total:13350992      MisBP:0   MisRate:0.00%    MPKI:0.00
PC:10a6c     Total:1      MisBP:0   MisRate:0.00%    MPKI:0.00
PC:1171a     Total:1458      MisBP:0   MisRate:0.00%    MPKI:0.00
PC:11818     Total:1898      MisBP:0   MisRate:0.00%    MPKI:0.00
PC:10a04     Total:157402      MisBP:0   MisRate:0.00%    MPKI:0.00
PC:11c68     Total:13301141      MisBP:0   MisRate:0.00%    MPKI:0.00
PC:1171e     Total:1465      MisBP:0   MisRate:0.00%    MPKI:0.00
PC:11bc4     Total:7      MisBP:0   MisRate:0.00%    MPKI:0.00
PC:10a70     Total:1      MisBP:0   MisRate:0.00%    MPKI:0.00
PC:11b54     Total:305      MisBP:0   MisRate:0.00%    MPKI:0.00
PC:11c52     Total:13347809      MisBP:0   MisRate:0.00%    MPKI:0.00
PC:1181c     Total:3      MisBP:0   MisRate:0.00%    MPKI:0.00
PC:10a00     Total:157633      MisBP:0   MisRate:0.00%    MPKI:0.00
PC:1181e     Total:3      MisBP:1   MisRate:33.33%    MPKI:0.00
PC:1183e     Total:3      MisBP:1   MisRate:33.33%    MPKI:0.00
PC:11c36     Total:44742      MisBP:1   MisRate:0.00%    MPKI:0.00
PC:1181a     Total:1898      MisBP:2   MisRate:0.11%    MPKI:0.00
PC:11ca8     Total:43645      MisBP:2   MisRate:0.00%    MPKI:0.00
PC:11cce     Total:49265      MisBP:2   MisRate:0.00%    MPKI:0.00
PC:11bc0     Total:1261      MisBP:3   MisRate:0.24%    MPKI:0.00
PC:11730     Total:1385      MisBP:5   MisRate:0.36%    MPKI:0.00
PC:11c94     Total:2288      MisBP:6   MisRate:0.26%    MPKI:0.00
PC:11a78     Total:1236      MisBP:6   MisRate:0.49%    MPKI:0.00
PC:11740     Total:1081      MisBP:8   MisRate:0.74%    MPKI:0.00
PC:117e6     Total:2176      MisBP:9   MisRate:0.41%    MPKI:0.00
PC:11872     Total:1183      MisBP:10   MisRate:0.85%    MPKI:0.00
PC:10a48     Total:185131      MisBP:11   MisRate:0.01%    MPKI:0.00
PC:11860     Total:1781      MisBP:18   MisRate:1.01%    MPKI:0.00
PC:11b68     Total:28612      MisBP:18   MisRate:0.06%    MPKI:0.00
PC:119e8     Total:1868      MisBP:21   MisRate:1.12%    MPKI:0.00
PC:11b58     Total:305      MisBP:26   MisRate:8.52%    MPKI:0.00
PC:11bcc     Total:1247      MisBP:31   MisRate:2.49%    MPKI:0.00
PC:118fe     Total:57255      MisBP:32   MisRate:0.06%    MPKI:0.00
PC:10a38     Total:1337301      MisBP:37   MisRate:0.00%    MPKI:0.00
PC:10a3c     Total:103      MisBP:41   MisRate:39.81%    MPKI:0.00
PC:11b3e     Total:145868      MisBP:84   MisRate:0.06%    MPKI:0.00
PC:11b48     Total:144231      MisBP:103   MisRate:0.07%    MPKI:0.00
PC:1176c     Total:11135      MisBP:130   MisRate:1.17%    MPKI:0.00
PC:118e4     Total:125470      MisBP:196   MisRate:0.16%    MPKI:0.00
PC:11778     Total:112145      MisBP:205   MisRate:0.18%    MPKI:0.00
PC:117a8     Total:2145      MisBP:276   MisRate:12.87%    MPKI:0.00
PC:117f4     Total:1701      MisBP:296   MisRate:17.40%    MPKI:0.00
PC:11bd0     Total:50756      MisBP:331   MisRate:0.65%    MPKI:0.00
PC:11802     Total:1957      MisBP:370   MisRate:18.91%    MPKI:0.00
PC:11be8     Total:50272      MisBP:644   MisRate:1.28%    MPKI:0.00
PC:11c0c     Total:48978      MisBP:648   MisRate:1.32%    MPKI:0.00
PC:11c74     Total:16760      MisBP:760   MisRate:4.53%    MPKI:0.00
PC:1187e     Total:49460      MisBP:832   MisRate:1.68%    MPKI:0.00
PC:11ca4     Total:43997      MisBP:936   MisRate:2.13%    MPKI:0.00
PC:1186e     Total:52435      MisBP:1022   MisRate:1.95%    MPKI:0.00
PC:118c0     Total:192406      MisBP:1036   MisRate:0.54%    MPKI:0.00
PC:11b66     Total:143991      MisBP:1171   MisRate:0.81%    MPKI:0.00
PC:11b6c     Total:32099      MisBP:1479   MisRate:4.61%    MPKI:0.00
PC:1191c     Total:67224      MisBP:4294   MisRate:6.39%    MPKI:0.01
PC:10a28     Total:672372      MisBP:4463   MisRate:0.66%    MPKI:0.01
PC:109fa     Total:173415      MisBP:4478   MisRate:2.58%    MPKI:0.01
PC:11772     Total:120022      MisBP:7717   MisRate:6.43%    MPKI:0.02
PC:11768     Total:178363      MisBP:8070   MisRate:4.52%    MPKI:0.03
PC:118c8     Total:312436      MisBP:8213   MisRate:2.63%    MPKI:0.03
PC:11b7a     Total:42493      MisBP:11388   MisRate:26.80%    MPKI:0.04
PC:10a0e     Total:151733      MisBP:15051   MisRate:9.92%    MPKI:0.05
PC:11c6e     Total:13288606      MisBP:16343   MisRate:0.12%    MPKI:0.05
PC:118a8     Total:125910      MisBP:19389   MisRate:15.40%    MPKI:0.06
PC:11b86     Total:142798      MisBP:19767   MisRate:13.84%    MPKI:0.06
PC:118cc     Total:186879      MisBP:23144   MisRate:12.38%    MPKI:0.07
PC:11c56     Total:13344299      MisBP:31084   MisRate:0.23%    MPKI:0.10
PC:10a16     Total:825805      MisBP:38370   MisRate:4.65%    MPKI:0.12
PC:11c4c     Total:13307592      MisBP:43911   MisRate:0.33%    MPKI:0.14
PC:10a32     Total:1304389      MisBP:85910   MisRate:6.59%    MPKI:0.28
Totfetch:340881771  TotInsts:310000000  TotMis : inf%   MPKI : 1.14
=============finish sim!!!!!!=============
Done running SimPoint!
