Global frequency set at 1000000000000 ticks per second
 Register [printBranch()] ExitCallback !!!!!!! 
gem5 Simulator System.  https://www.gem5.org
gem5 is copyrighted software; use the --copyright option for details.

gem5 version 22.0.0.2
gem5 compiled Sep  7 2022 00:42:18
gem5 started Sep  7 2022 03:11:21
gem5 executing on a100, pid 2755294
command line: /data/zxf/gem5/gem5-prof/build/ARM/gem5.fast --outdir=/data/zxf/checkpoint/spec2006/401.bzip2/prof/bzip2_ckp_6 /data/zxf/gem5/gem5-prof/configs/example/se.py --cpu-type O3CPU --cpu-clock 1GHz --num-cpu 1 --l1d-hwp-type=BOPPrefetcher --caches --l2cache --l1i_size 32kB --l1d_size 32kB --l2_size 1MB --l1i_assoc 8 --l1d_assoc 8 --l2_assoc 16 --cacheline_size 64 --mem-type DDR3_2133_8x8 --mem-size 16GB --restore-simpoint-checkpoint -r 6 --checkpoint-dir /data/zxf/checkpoint/spec2006/401.bzip2/ckpt -c bzip2_base.gcc41-64bit -o 'input.source 280'

info: Standard input is not a terminal, disabling listeners.
Resuming from /data/zxf/checkpoint/spec2006/401.bzip2/ckpt/cpt.simpoint_05_inst_110690000000_weight_0.002086_interval_300000000_warmup_10000000
Resuming from SimPoint #5, start_inst:110690000000, weight:0.002086, interval:300000000, warmup:10000000
Switch at curTick count:10000
Switched CPUS @ tick 68183366193000
[(<m5.objects.ArmCPU.ArmAtomicSimpleCPU object at 0x7f21e6c64bb0>, <m5.objects.ArmCPU.ArmO3CPU object at 0x7f21e6c7ce20>)]
switching cpus



+++++++++++++++++++++++++zxf print simpoint+++++++++++++++++++++++++++
Warmed up! Dumping and resetting stats!


=============start sim!!!!!!=============
Compressed data 54403299 bytes in length
Uncompressing Data
PC:16962     Total:881      MisBP:0   MisRate:0.00%    MPKI:0.00
PC:19002     Total:52      MisBP:0   MisRate:0.00%    MPKI:0.00
PC:23224     Total:5      MisBP:0   MisRate:0.00%    MPKI:0.00
PC:1691c     Total:12      MisBP:0   MisRate:0.00%    MPKI:0.00
PC:190f2     Total:14      MisBP:0   MisRate:0.00%    MPKI:0.00
PC:119b8     Total:1062948      MisBP:0   MisRate:0.00%    MPKI:0.00
PC:16934     Total:12      MisBP:0   MisRate:0.00%    MPKI:0.00
PC:1693c     Total:883      MisBP:0   MisRate:0.00%    MPKI:0.00
PC:119c8     Total:774714      MisBP:0   MisRate:0.00%    MPKI:0.00
PC:16944     Total:881      MisBP:0   MisRate:0.00%    MPKI:0.00
PC:16948     Total:881      MisBP:0   MisRate:0.00%    MPKI:0.00
PC:119e6     Total:395752      MisBP:0   MisRate:0.00%    MPKI:0.00
PC:1415e     Total:52      MisBP:0   MisRate:0.00%    MPKI:0.00
PC:119ea     Total:394640      MisBP:0   MisRate:0.00%    MPKI:0.00
PC:19124     Total:17      MisBP:0   MisRate:0.00%    MPKI:0.00
PC:16966     Total:1762      MisBP:0   MisRate:0.00%    MPKI:0.00
PC:141ac     Total:50      MisBP:0   MisRate:0.00%    MPKI:0.00
PC:119ee     Total:342854      MisBP:0   MisRate:0.00%    MPKI:0.00
PC:19128     Total:17      MisBP:0   MisRate:0.00%    MPKI:0.00
PC:1696a     Total:1746      MisBP:0   MisRate:0.00%    MPKI:0.00
PC:141b0     Total:5      MisBP:0   MisRate:0.00%    MPKI:0.00
PC:1912c     Total:17      MisBP:0   MisRate:0.00%    MPKI:0.00
PC:119f2     Total:329173      MisBP:0   MisRate:0.00%    MPKI:0.00
PC:29538     Total:1600      MisBP:0   MisRate:0.00%    MPKI:0.00
PC:385f4     Total:1      MisBP:0   MisRate:0.00%    MPKI:0.00
PC:15428     Total:206      MisBP:0   MisRate:0.00%    MPKI:0.00
PC:29530     Total:1600      MisBP:0   MisRate:0.00%    MPKI:0.00
PC:385f6     Total:1      MisBP:0   MisRate:0.00%    MPKI:0.00
PC:1542c     Total:206      MisBP:0   MisRate:0.00%    MPKI:0.00
PC:150f0     Total:4100337      MisBP:0   MisRate:0.00%    MPKI:0.00
PC:29534     Total:1600      MisBP:0   MisRate:0.00%    MPKI:0.00
PC:1542e     Total:206      MisBP:0   MisRate:0.00%    MPKI:0.00
PC:385fc     Total:1      MisBP:0   MisRate:0.00%    MPKI:0.00
PC:15430     Total:1395      MisBP:0   MisRate:0.00%    MPKI:0.00
PC:1696e     Total:873      MisBP:0   MisRate:0.00%    MPKI:0.00
PC:385fe     Total:1      MisBP:0   MisRate:0.00%    MPKI:0.00
PC:15432     Total:1395      MisBP:0   MisRate:0.00%    MPKI:0.00
PC:15436     Total:1426      MisBP:0   MisRate:0.00%    MPKI:0.00
PC:15438     Total:1426      MisBP:0   MisRate:0.00%    MPKI:0.00
PC:29540     Total:1598      MisBP:0   MisRate:0.00%    MPKI:0.00
PC:1543a     Total:2852      MisBP:0   MisRate:0.00%    MPKI:0.00
PC:1543e     Total:1426      MisBP:0   MisRate:0.00%    MPKI:0.00
PC:1690e     Total:12      MisBP:0   MisRate:0.00%    MPKI:0.00
PC:16914     Total:12      MisBP:0   MisRate:0.00%    MPKI:0.00
PC:16918     Total:12      MisBP:0   MisRate:0.00%    MPKI:0.00
PC:11a24     Total:174636      MisBP:0   MisRate:0.00%    MPKI:0.00
PC:16992     Total:1      MisBP:0   MisRate:0.00%    MPKI:0.00
PC:19152     Total:7      MisBP:0   MisRate:0.00%    MPKI:0.00
PC:16994     Total:1      MisBP:0   MisRate:0.00%    MPKI:0.00
PC:11a1c     Total:190918      MisBP:0   MisRate:0.00%    MPKI:0.00
PC:16998     Total:658      MisBP:0   MisRate:0.00%    MPKI:0.00
PC:1699c     Total:65      MisBP:0   MisRate:0.00%    MPKI:0.00
PC:11a22     Total:174661      MisBP:0   MisRate:0.00%    MPKI:0.00
PC:1915c     Total:6      MisBP:0   MisRate:0.00%    MPKI:0.00
PC:18fbe     Total:56      MisBP:0   MisRate:0.00%    MPKI:0.00
PC:231e0     Total:6      MisBP:0   MisRate:0.00%    MPKI:0.00
PC:1699e     Total:65      MisBP:0   MisRate:0.00%    MPKI:0.00
PC:11a16     Total:145815      MisBP:0   MisRate:0.00%    MPKI:0.00
PC:1915e     Total:6      MisBP:0   MisRate:0.00%    MPKI:0.00
PC:1411c     Total:6      MisBP:0   MisRate:0.00%    MPKI:0.00
PC:231e2     Total:6      MisBP:0   MisRate:0.00%    MPKI:0.00
PC:169a0     Total:65      MisBP:0   MisRate:0.00%    MPKI:0.00
PC:11a26     Total:174628      MisBP:0   MisRate:0.00%    MPKI:0.00
PC:169a2     Total:65      MisBP:0   MisRate:0.00%    MPKI:0.00
PC:19164     Total:6      MisBP:0   MisRate:0.00%    MPKI:0.00
PC:14122     Total:6      MisBP:0   MisRate:0.00%    MPKI:0.00
PC:18fc6     Total:56      MisBP:0   MisRate:0.00%    MPKI:0.00
PC:231e8     Total:6      MisBP:0   MisRate:0.00%    MPKI:0.00
PC:1913e     Total:7      MisBP:0   MisRate:0.00%    MPKI:0.00
PC:119f6     Total:289136      MisBP:0   MisRate:0.00%    MPKI:0.00
PC:16972     Total:873      MisBP:0   MisRate:0.00%    MPKI:0.00
PC:119fa     Total:288149      MisBP:0   MisRate:0.00%    MPKI:0.00
PC:19134     Total:17      MisBP:0   MisRate:0.00%    MPKI:0.00
PC:16976     Total:873      MisBP:0   MisRate:0.00%    MPKI:0.00
PC:16978     Total:873      MisBP:0   MisRate:0.00%    MPKI:0.00
PC:119fe     Total:255843      MisBP:0   MisRate:0.00%    MPKI:0.00
PC:19138     Total:7      MisBP:0   MisRate:0.00%    MPKI:0.00
PC:11a00     Total:238928      MisBP:0   MisRate:0.00%    MPKI:0.00
PC:1697c     Total:17      MisBP:0   MisRate:0.00%    MPKI:0.00
PC:15426     Total:206      MisBP:0   MisRate:0.00%    MPKI:0.00
PC:16980     Total:16      MisBP:0   MisRate:0.00%    MPKI:0.00
PC:11a08     Total:216532      MisBP:0   MisRate:0.00%    MPKI:0.00
PC:19142     Total:7      MisBP:0   MisRate:0.00%    MPKI:0.00
PC:16984     Total:16      MisBP:0   MisRate:0.00%    MPKI:0.00
PC:16988     Total:1      MisBP:0   MisRate:0.00%    MPKI:0.00
PC:11a10     Total:29284      MisBP:0   MisRate:0.00%    MPKI:0.00
PC:1698c     Total:1      MisBP:0   MisRate:0.00%    MPKI:0.00
PC:11a14     Total:29226      MisBP:0   MisRate:0.00%    MPKI:0.00
PC:1914e     Total:7      MisBP:0   MisRate:0.00%    MPKI:0.00
PC:16990     Total:1      MisBP:0   MisRate:0.00%    MPKI:0.00
PC:153e8     Total:18      MisBP:0   MisRate:0.00%    MPKI:0.00
PC:153e0     Total:18      MisBP:0   MisRate:0.00%    MPKI:0.00
PC:150a4     Total:113957      MisBP:0   MisRate:0.00%    MPKI:0.00
PC:294e8     Total:146      MisBP:0   MisRate:0.00%    MPKI:0.00
PC:385ae     Total:1      MisBP:0   MisRate:0.00%    MPKI:0.00
PC:153e4     Total:18      MisBP:0   MisRate:0.00%    MPKI:0.00
PC:150a8     Total:113947      MisBP:0   MisRate:0.00%    MPKI:0.00
PC:294ec     Total:146      MisBP:0   MisRate:0.00%    MPKI:0.00
PC:385b2     Total:1      MisBP:0   MisRate:0.00%    MPKI:0.00
PC:153e6     Total:18      MisBP:0   MisRate:0.00%    MPKI:0.00
PC:385b4     Total:1      MisBP:0   MisRate:0.00%    MPKI:0.00
PC:103a4     Total:10      MisBP:0   MisRate:0.00%    MPKI:0.00
PC:385ac     Total:1      MisBP:0   MisRate:0.00%    MPKI:0.00
PC:294f0     Total:146      MisBP:0   MisRate:0.00%    MPKI:0.00
PC:385b6     Total:1      MisBP:0   MisRate:0.00%    MPKI:0.00
PC:153ea     Total:18389      MisBP:0   MisRate:0.00%    MPKI:0.00
PC:385b8     Total:1      MisBP:0   MisRate:0.00%    MPKI:0.00
PC:103a8     Total:1      MisBP:0   MisRate:0.00%    MPKI:0.00
PC:153ec     Total:18389      MisBP:0   MisRate:0.00%    MPKI:0.00
PC:294f4     Total:146      MisBP:0   MisRate:0.00%    MPKI:0.00
PC:385ba     Total:1      MisBP:0   MisRate:0.00%    MPKI:0.00
PC:103aa     Total:1      MisBP:0   MisRate:0.00%    MPKI:0.00
PC:153f0     Total:18388      MisBP:0   MisRate:0.00%    MPKI:0.00
PC:3859c     Total:2      MisBP:0   MisRate:0.00%    MPKI:0.00
PC:15088     Total:794658      MisBP:0   MisRate:0.00%    MPKI:0.00
PC:294cc     Total:314      MisBP:0   MisRate:0.00%    MPKI:0.00
PC:38592     Total:1      MisBP:0   MisRate:0.00%    MPKI:0.00
PC:153c6     Total:52      MisBP:0   MisRate:0.00%    MPKI:0.00
PC:153ca     Total:52      MisBP:0   MisRate:0.00%    MPKI:0.00
PC:38598     Total:2      MisBP:0   MisRate:0.00%    MPKI:0.00
PC:29810     Total:84      MisBP:0   MisRate:0.00%    MPKI:0.00
PC:15090     Total:62559      MisBP:0   MisRate:0.00%    MPKI:0.00
PC:294d4     Total:146      MisBP:0   MisRate:0.00%    MPKI:0.00
PC:153ce     Total:13      MisBP:0   MisRate:0.00%    MPKI:0.00
PC:150b4     Total:110848      MisBP:0   MisRate:0.00%    MPKI:0.00
PC:385a0     Total:2      MisBP:0   MisRate:0.00%    MPKI:0.00
PC:153d6     Total:18      MisBP:0   MisRate:0.00%    MPKI:0.00
PC:385a4     Total:2      MisBP:0   MisRate:0.00%    MPKI:0.00
PC:2981c     Total:28      MisBP:0   MisRate:0.00%    MPKI:0.00
PC:153d8     Total:18      MisBP:0   MisRate:0.00%    MPKI:0.00
PC:1509c     Total:114237      MisBP:0   MisRate:0.00%    MPKI:0.00
PC:294e0     Total:146      MisBP:0   MisRate:0.00%    MPKI:0.00
PC:153da     Total:18      MisBP:0   MisRate:0.00%    MPKI:0.00
PC:385a8     Total:1      MisBP:0   MisRate:0.00%    MPKI:0.00
PC:153de     Total:18      MisBP:0   MisRate:0.00%    MPKI:0.00
PC:1540e     Total:17      MisBP:0   MisRate:0.00%    MPKI:0.00
PC:103be     Total:1      MisBP:0   MisRate:0.00%    MPKI:0.00
PC:385ce     Total:1      MisBP:0   MisRate:0.00%    MPKI:0.00
PC:15404     Total:18101      MisBP:0   MisRate:0.00%    MPKI:0.00
PC:2950c     Total:1605      MisBP:0   MisRate:0.00%    MPKI:0.00
PC:385d2     Total:1      MisBP:0   MisRate:0.00%    MPKI:0.00
PC:29510     Total:1605      MisBP:0   MisRate:0.00%    MPKI:0.00
PC:385d6     Total:1      MisBP:0   MisRate:0.00%    MPKI:0.00
PC:1540c     Total:17      MisBP:0   MisRate:0.00%    MPKI:0.00
PC:150d0     Total:106598      MisBP:0   MisRate:0.00%    MPKI:0.00
PC:29514     Total:1605      MisBP:0   MisRate:0.00%    MPKI:0.00
PC:29508     Total:1607      MisBP:0   MisRate:0.00%    MPKI:0.00
PC:15410     Total:17      MisBP:0   MisRate:0.00%    MPKI:0.00
PC:150d4     Total:106592      MisBP:0   MisRate:0.00%    MPKI:0.00
PC:29518     Total:1605      MisBP:0   MisRate:0.00%    MPKI:0.00
PC:15412     Total:17      MisBP:0   MisRate:0.00%    MPKI:0.00
PC:15416     Total:17      MisBP:0   MisRate:0.00%    MPKI:0.00
PC:1541a     Total:17      MisBP:0   MisRate:0.00%    MPKI:0.00
PC:1541e     Total:17      MisBP:0   MisRate:0.00%    MPKI:0.00
PC:385ec     Total:1      MisBP:0   MisRate:0.00%    MPKI:0.00
PC:15422     Total:412      MisBP:0   MisRate:0.00%    MPKI:0.00
PC:385f0     Total:1      MisBP:0   MisRate:0.00%    MPKI:0.00
PC:103b6     Total:1      MisBP:0   MisRate:0.00%    MPKI:0.00
PC:294f8     Total:146      MisBP:0   MisRate:0.00%    MPKI:0.00
PC:153f2     Total:18388      MisBP:0   MisRate:0.00%    MPKI:0.00
PC:103b0     Total:1      MisBP:0   MisRate:0.00%    MPKI:0.00
PC:153f4     Total:18388      MisBP:0   MisRate:0.00%    MPKI:0.00
PC:150b8     Total:110834      MisBP:0   MisRate:0.00%    MPKI:0.00
PC:294fc     Total:146      MisBP:0   MisRate:0.00%    MPKI:0.00
PC:385c2     Total:1      MisBP:0   MisRate:0.00%    MPKI:0.00
PC:153f8     Total:18384      MisBP:0   MisRate:0.00%    MPKI:0.00
PC:150bc     Total:110826      MisBP:0   MisRate:0.00%    MPKI:0.00
PC:29500     Total:1607      MisBP:0   MisRate:0.00%    MPKI:0.00
PC:11a2a     Total:155350      MisBP:0   MisRate:0.00%    MPKI:0.00
PC:385c6     Total:1      MisBP:0   MisRate:0.00%    MPKI:0.00
PC:153fa     Total:18382      MisBP:0   MisRate:0.00%    MPKI:0.00
PC:103b8     Total:1      MisBP:0   MisRate:0.00%    MPKI:0.00
PC:153fc     Total:469632      MisBP:0   MisRate:0.00%    MPKI:0.00
PC:150c0     Total:106667      MisBP:0   MisRate:0.00%    MPKI:0.00
PC:29504     Total:1607      MisBP:0   MisRate:0.00%    MPKI:0.00
PC:103ba     Total:1      MisBP:0   MisRate:0.00%    MPKI:0.00
PC:385ca     Total:1      MisBP:0   MisRate:0.00%    MPKI:0.00
PC:15400     Total:234397      MisBP:0   MisRate:0.00%    MPKI:0.00
PC:150c4     Total:106662      MisBP:0   MisRate:0.00%    MPKI:0.00
PC:15cd0     Total:18266      MisBP:0   MisRate:0.00%    MPKI:0.00
PC:15c5a     Total:18609      MisBP:0   MisRate:0.00%    MPKI:0.00
PC:15c68     Total:18588      MisBP:0   MisRate:0.00%    MPKI:0.00
PC:15c6a     Total:18588      MisBP:0   MisRate:0.00%    MPKI:0.00
PC:15c74     Total:18558      MisBP:0   MisRate:0.00%    MPKI:0.00
PC:15c7a     Total:18493      MisBP:0   MisRate:0.00%    MPKI:0.00
PC:15c96     Total:18359      MisBP:0   MisRate:0.00%    MPKI:0.00
PC:15cac     Total:18278      MisBP:0   MisRate:0.00%    MPKI:0.00
PC:15cb8     Total:18336      MisBP:0   MisRate:0.00%    MPKI:0.00
PC:15cbc     Total:18295      MisBP:0   MisRate:0.00%    MPKI:0.00
PC:15cc0     Total:18254      MisBP:0   MisRate:0.00%    MPKI:0.00
PC:15cc8     Total:18289      MisBP:0   MisRate:0.00%    MPKI:0.00
PC:15c4c     Total:18663      MisBP:0   MisRate:0.00%    MPKI:0.00
PC:15cda     Total:18325      MisBP:0   MisRate:0.00%    MPKI:0.00
PC:15cea     Total:18341      MisBP:0   MisRate:0.00%    MPKI:0.00
PC:15cee     Total:18339      MisBP:0   MisRate:0.00%    MPKI:0.00
PC:15cf6     Total:18326      MisBP:0   MisRate:0.00%    MPKI:0.00
PC:38ec4     Total:1      MisBP:0   MisRate:0.00%    MPKI:0.00
PC:15cfa     Total:18353      MisBP:0   MisRate:0.00%    MPKI:0.00
PC:24a84     Total:3      MisBP:0   MisRate:0.00%    MPKI:0.00
PC:38ec8     Total:1      MisBP:0   MisRate:0.00%    MPKI:0.00
PC:15d02     Total:18344      MisBP:0   MisRate:0.00%    MPKI:0.00
PC:15d16     Total:18342      MisBP:0   MisRate:0.00%    MPKI:0.00
PC:15ba4     Total:18619      MisBP:0   MisRate:0.00%    MPKI:0.00
PC:15b68     Total:18512      MisBP:0   MisRate:0.00%    MPKI:0.00
PC:133ae     Total:1      MisBP:0   MisRate:0.00%    MPKI:0.00
PC:15b6c     Total:18510      MisBP:0   MisRate:0.00%    MPKI:0.00
PC:15b74     Total:18438      MisBP:0   MisRate:0.00%    MPKI:0.00
PC:15b78     Total:18520      MisBP:0   MisRate:0.00%    MPKI:0.00
PC:15b80     Total:18529      MisBP:0   MisRate:0.00%    MPKI:0.00
PC:15b84     Total:18527      MisBP:0   MisRate:0.00%    MPKI:0.00
PC:15b8c     Total:18523      MisBP:0   MisRate:0.00%    MPKI:0.00
PC:15b90     Total:18588      MisBP:0   MisRate:0.00%    MPKI:0.00
PC:15ba0     Total:18619      MisBP:0   MisRate:0.00%    MPKI:0.00
PC:24aa0     Total:3      MisBP:0   MisRate:0.00%    MPKI:0.00
PC:15bb0     Total:18599      MisBP:0   MisRate:0.00%    MPKI:0.00
PC:15c00     Total:18565      MisBP:0   MisRate:0.00%    MPKI:0.00
PC:15c06     Total:18565      MisBP:0   MisRate:0.00%    MPKI:0.00
PC:15c12     Total:18604      MisBP:0   MisRate:0.00%    MPKI:0.00
PC:15c1c     Total:18727      MisBP:0   MisRate:0.00%    MPKI:0.00
PC:15c22     Total:18789      MisBP:0   MisRate:0.00%    MPKI:0.00
PC:15c26     Total:18726      MisBP:0   MisRate:0.00%    MPKI:0.00
PC:15c3c     Total:18721      MisBP:0   MisRate:0.00%    MPKI:0.00
PC:15c40     Total:18590      MisBP:0   MisRate:0.00%    MPKI:0.00
PC:15c46     Total:18605      MisBP:0   MisRate:0.00%    MPKI:0.00
PC:13042     Total:2      MisBP:0   MisRate:0.00%    MPKI:0.00
PC:38f2c     Total:1      MisBP:0   MisRate:0.00%    MPKI:0.00
PC:15d60     Total:18336      MisBP:0   MisRate:0.00%    MPKI:0.00
PC:3620a     Total:18      MisBP:0   MisRate:0.00%    MPKI:0.00
PC:15d64     Total:18335      MisBP:0   MisRate:0.00%    MPKI:0.00
PC:15d66     Total:18335      MisBP:0   MisRate:0.00%    MPKI:0.00
PC:38f34     Total:1      MisBP:0   MisRate:0.00%    MPKI:0.00
PC:3620e     Total:15      MisBP:0   MisRate:0.00%    MPKI:0.00
PC:13040     Total:2      MisBP:0   MisRate:0.00%    MPKI:0.00
PC:15d68     Total:18398      MisBP:0   MisRate:0.00%    MPKI:0.00
PC:38f36     Total:1      MisBP:0   MisRate:0.00%    MPKI:0.00
PC:15d5e     Total:18336      MisBP:0   MisRate:0.00%    MPKI:0.00
PC:15d6a     Total:18398      MisBP:0   MisRate:0.00%    MPKI:0.00
PC:38f38     Total:1      MisBP:0   MisRate:0.00%    MPKI:0.00
PC:15d6c     Total:18398      MisBP:0   MisRate:0.00%    MPKI:0.00
PC:15d6e     Total:18398      MisBP:0   MisRate:0.00%    MPKI:0.00
PC:38f3c     Total:1      MisBP:0   MisRate:0.00%    MPKI:0.00
PC:15d72     Total:18398      MisBP:0   MisRate:0.00%    MPKI:0.00
PC:1304c     Total:2      MisBP:0   MisRate:0.00%    MPKI:0.00
PC:15d74     Total:18398      MisBP:0   MisRate:0.00%    MPKI:0.00
PC:15d90     Total:18350      MisBP:0   MisRate:0.00%    MPKI:0.00
PC:15d94     Total:18350      MisBP:0   MisRate:0.00%    MPKI:0.00
PC:15d4c     Total:18349      MisBP:0   MisRate:0.00%    MPKI:0.00
PC:38ee4     Total:1      MisBP:0   MisRate:0.00%    MPKI:0.00
PC:15d2c     Total:18348      MisBP:0   MisRate:0.00%    MPKI:0.00
PC:15d38     Total:18344      MisBP:0   MisRate:0.00%    MPKI:0.00
PC:15d3e     Total:18367      MisBP:0   MisRate:0.00%    MPKI:0.00
PC:15d40     Total:18324      MisBP:0   MisRate:0.00%    MPKI:0.00
PC:15d42     Total:18318      MisBP:0   MisRate:0.00%    MPKI:0.00
PC:15d44     Total:18349      MisBP:0   MisRate:0.00%    MPKI:0.00
PC:15d46     Total:18350      MisBP:0   MisRate:0.00%    MPKI:0.00
PC:15d48     Total:18350      MisBP:0   MisRate:0.00%    MPKI:0.00
PC:15d4a     Total:18349      MisBP:0   MisRate:0.00%    MPKI:0.00
PC:133aa     Total:1      MisBP:0   MisRate:0.00%    MPKI:0.00
PC:361f6     Total:131      MisBP:0   MisRate:0.00%    MPKI:0.00
PC:15d50     Total:18349      MisBP:0   MisRate:0.00%    MPKI:0.00
PC:38f1e     Total:1      MisBP:0   MisRate:0.00%    MPKI:0.00
PC:15d54     Total:18309      MisBP:0   MisRate:0.00%    MPKI:0.00
PC:38f22     Total:1      MisBP:0   MisRate:0.00%    MPKI:0.00
PC:15d58     Total:18309      MisBP:0   MisRate:0.00%    MPKI:0.00
PC:38f26     Total:1      MisBP:0   MisRate:0.00%    MPKI:0.00
PC:15d5a     Total:18306      MisBP:0   MisRate:0.00%    MPKI:0.00
PC:15d5c     Total:18306      MisBP:0   MisRate:0.00%    MPKI:0.00
PC:38f2a     Total:1      MisBP:0   MisRate:0.00%    MPKI:0.00
PC:2420c     Total:4      MisBP:0   MisRate:0.00%    MPKI:0.00
PC:1544e     Total:18321      MisBP:0   MisRate:0.00%    MPKI:0.00
PC:15452     Total:18321      MisBP:0   MisRate:0.00%    MPKI:0.00
PC:15456     Total:18321      MisBP:0   MisRate:0.00%    MPKI:0.00
PC:15458     Total:18321      MisBP:0   MisRate:0.00%    MPKI:0.00
PC:29560     Total:1596      MisBP:0   MisRate:0.00%    MPKI:0.00
PC:14e06     Total:9848      MisBP:0   MisRate:0.00%    MPKI:0.00
PC:2924a     Total:26      MisBP:0   MisRate:0.00%    MPKI:0.00
PC:24208     Total:2      MisBP:0   MisRate:0.00%    MPKI:0.00
PC:1545a     Total:392002      MisBP:0   MisRate:0.00%    MPKI:0.00
PC:14e0a     Total:9700      MisBP:0   MisRate:0.00%    MPKI:0.00
PC:2924e     Total:26      MisBP:0   MisRate:0.00%    MPKI:0.00
PC:1544a     Total:18321      MisBP:0   MisRate:0.00%    MPKI:0.00
PC:1545e     Total:214267      MisBP:0   MisRate:0.00%    MPKI:0.00
PC:15460     Total:214267      MisBP:0   MisRate:0.00%    MPKI:0.00
PC:29568     Total:1596      MisBP:0   MisRate:0.00%    MPKI:0.00
PC:15462     Total:214267      MisBP:0   MisRate:0.00%    MPKI:0.00
PC:14e10     Total:9697      MisBP:0   MisRate:0.00%    MPKI:0.00
PC:24212     Total:4      MisBP:0   MisRate:0.00%    MPKI:0.00
PC:15464     Total:214267      MisBP:0   MisRate:0.00%    MPKI:0.00
PC:15128     Total:6      MisBP:0   MisRate:0.00%    MPKI:0.00
PC:2956c     Total:1596      MisBP:0   MisRate:0.00%    MPKI:0.00
PC:15468     Total:214242      MisBP:0   MisRate:0.00%    MPKI:0.00
PC:14130     Total:6      MisBP:0   MisRate:0.00%    MPKI:0.00
PC:169a6     Total:65      MisBP:0   MisRate:0.00%    MPKI:0.00
PC:11a2c     Total:155339      MisBP:0   MisRate:0.00%    MPKI:0.00
PC:11a30     Total:155178      MisBP:0   MisRate:0.00%    MPKI:0.00
PC:169ac     Total:53      MisBP:0   MisRate:0.00%    MPKI:0.00
PC:1916e     Total:6      MisBP:0   MisRate:0.00%    MPKI:0.00
PC:1412c     Total:6      MisBP:0   MisRate:0.00%    MPKI:0.00
PC:11a34     Total:160132      MisBP:0   MisRate:0.00%    MPKI:0.00
PC:169b0     Total:53      MisBP:0   MisRate:0.00%    MPKI:0.00
PC:11a38     Total:160105      MisBP:0   MisRate:0.00%    MPKI:0.00
PC:19172     Total:6      MisBP:0   MisRate:0.00%    MPKI:0.00
PC:29570     Total:1596      MisBP:0   MisRate:0.00%    MPKI:0.00
PC:18fd4     Total:55      MisBP:0   MisRate:0.00%    MPKI:0.00
PC:231f6     Total:6      MisBP:0   MisRate:0.00%    MPKI:0.00
PC:169b4     Total:53      MisBP:0   MisRate:0.00%    MPKI:0.00
PC:11a3c     Total:142656      MisBP:0   MisRate:0.00%    MPKI:0.00
PC:169b8     Total:53      MisBP:0   MisRate:0.00%    MPKI:0.00
PC:15104     Total:211601      MisBP:0   MisRate:0.00%    MPKI:0.00
PC:29548     Total:1598      MisBP:0   MisRate:0.00%    MPKI:0.00
PC:15442     Total:209      MisBP:0   MisRate:0.00%    MPKI:0.00
PC:2954c     Total:1597      MisBP:0   MisRate:0.00%    MPKI:0.00
PC:15446     Total:18      MisBP:0   MisRate:0.00%    MPKI:0.00
PC:15ab6     Total:18265      MisBP:0   MisRate:0.00%    MPKI:0.00
PC:24542     Total:3      MisBP:0   MisRate:0.00%    MPKI:0.00
PC:13192     Total:198      MisBP:0   MisRate:0.00%    MPKI:0.00
PC:181d4     Total:1      MisBP:0   MisRate:0.00%    MPKI:0.00
PC:15950     Total:18089      MisBP:0   MisRate:0.00%    MPKI:0.00
PC:131ae     Total:1      MisBP:0   MisRate:0.00%    MPKI:0.00
PC:1596c     Total:18089      MisBP:0   MisRate:0.00%    MPKI:0.00
PC:1f9f0     Total:3      MisBP:0   MisRate:0.00%    MPKI:0.00
PC:159f2     Total:18187      MisBP:0   MisRate:0.00%    MPKI:0.00
PC:15a58     Total:18307      MisBP:0   MisRate:0.00%    MPKI:0.00
PC:15a78     Total:18382      MisBP:0   MisRate:0.00%    MPKI:0.00
PC:29584     Total:1596      MisBP:0   MisRate:0.00%    MPKI:0.00
PC:15ad6     Total:18236      MisBP:0   MisRate:0.00%    MPKI:0.00
PC:15ae4     Total:18303      MisBP:0   MisRate:0.00%    MPKI:0.00
PC:1333c     Total:30      MisBP:0   MisRate:0.00%    MPKI:0.00
PC:15afa     Total:18388      MisBP:0   MisRate:0.00%    MPKI:0.00
PC:15b04     Total:18389      MisBP:0   MisRate:0.00%    MPKI:0.00
PC:15b18     Total:18412      MisBP:0   MisRate:0.00%    MPKI:0.00
PC:15b28     Total:18470      MisBP:0   MisRate:0.00%    MPKI:0.00
PC:15b34     Total:18463      MisBP:0   MisRate:0.00%    MPKI:0.00
PC:13396     Total:5      MisBP:0   MisRate:0.00%    MPKI:0.00
PC:15b54     Total:18382      MisBP:0   MisRate:0.00%    MPKI:0.00
PC:24538     Total:4      MisBP:0   MisRate:0.00%    MPKI:0.00
PC:1546a     Total:214242      MisBP:0   MisRate:0.00%    MPKI:0.00
PC:1546c     Total:208994      MisBP:0   MisRate:0.00%    MPKI:0.00
PC:29574     Total:1596      MisBP:0   MisRate:0.00%    MPKI:0.00
PC:24534     Total:4      MisBP:0   MisRate:0.00%    MPKI:0.00
PC:15470     Total:18030      MisBP:0   MisRate:0.00%    MPKI:0.00
PC:15134     Total:6      MisBP:0   MisRate:0.00%    MPKI:0.00
PC:29578     Total:1596      MisBP:0   MisRate:0.00%    MPKI:0.00
PC:14e1e     Total:9786      MisBP:0   MisRate:0.00%    MPKI:0.00
PC:29262     Total:8      MisBP:0   MisRate:0.00%    MPKI:0.00
PC:15472     Total:18030      MisBP:0   MisRate:0.00%    MPKI:0.00
PC:153c4     Total:52      MisBP:0   MisRate:0.00%    MPKI:0.00
PC:29266     Total:22      MisBP:0   MisRate:0.00%    MPKI:0.00
PC:24224     Total:4      MisBP:0   MisRate:0.00%    MPKI:0.00
PC:15476     Total:18030      MisBP:0   MisRate:0.00%    MPKI:0.00
PC:2453c     Total:4      MisBP:0   MisRate:0.00%    MPKI:0.00
PC:15478     Total:18030      MisBP:0   MisRate:0.00%    MPKI:0.00
PC:29580     Total:1596      MisBP:0   MisRate:0.00%    MPKI:0.00
PC:1547a     Total:18030      MisBP:0   MisRate:0.00%    MPKI:0.00
PC:24540     Total:3      MisBP:0   MisRate:0.00%    MPKI:0.00
PC:1547c     Total:18054      MisBP:0   MisRate:0.00%    MPKI:0.00
PC:15140     Total:4      MisBP:0   MisRate:0.00%    MPKI:0.00
PC:24364     Total:2      MisBP:0   MisRate:0.00%    MPKI:0.00
PC:11a72     Total:60159      MisBP:0   MisRate:0.00%    MPKI:0.00
PC:16ab4     Total:21      MisBP:0   MisRate:0.00%    MPKI:0.00
PC:16ada     Total:11      MisBP:0   MisRate:0.00%    MPKI:0.00
PC:191d2     Total:6      MisBP:0   MisRate:0.00%    MPKI:0.00
PC:15a94     Total:18300      MisBP:0   MisRate:0.00%    MPKI:0.00
PC:2434c     Total:6      MisBP:0   MisRate:0.00%    MPKI:0.00
PC:24358     Total:1      MisBP:0   MisRate:0.00%    MPKI:0.00
PC:15296     Total:18      MisBP:0   MisRate:0.00%    MPKI:0.00
PC:1529a     Total:18      MisBP:0   MisRate:0.00%    MPKI:0.00
PC:24360     Total:2      MisBP:0   MisRate:0.00%    MPKI:0.00
PC:1529e     Total:18      MisBP:0   MisRate:0.00%    MPKI:0.00
PC:15a5e     Total:18307      MisBP:0   MisRate:0.00%    MPKI:0.00
PC:152a2     Total:17      MisBP:0   MisRate:0.00%    MPKI:0.00
PC:24368     Total:2      MisBP:0   MisRate:0.00%    MPKI:0.00
PC:152a6     Total:16      MisBP:0   MisRate:0.00%    MPKI:0.00
PC:24370     Total:1      MisBP:0   MisRate:0.00%    MPKI:0.00
PC:152ae     Total:11      MisBP:0   MisRate:0.00%    MPKI:0.00
PC:24374     Total:1      MisBP:0   MisRate:0.00%    MPKI:0.00
PC:152b2     Total:11      MisBP:0   MisRate:0.00%    MPKI:0.00
PC:24378     Total:1      MisBP:0   MisRate:0.00%    MPKI:0.00
PC:152b6     Total:11      MisBP:0   MisRate:0.00%    MPKI:0.00
PC:2437c     Total:1      MisBP:0   MisRate:0.00%    MPKI:0.00
PC:15a16     Total:18322      MisBP:0   MisRate:0.00%    MPKI:0.00
PC:23200     Total:6      MisBP:0   MisRate:0.00%    MPKI:0.00
PC:18fde     Total:55      MisBP:0   MisRate:0.00%    MPKI:0.00
PC:1599a     Total:18049      MisBP:0   MisRate:0.00%    MPKI:0.00
PC:1694e     Total:881      MisBP:0   MisRate:0.00%    MPKI:0.00
PC:119d2     Total:603820      MisBP:0   MisRate:0.00%    MPKI:0.00
PC:159ce     Total:18143      MisBP:0   MisRate:0.00%    MPKI:0.00
PC:38ed8     Total:1      MisBP:0   MisRate:0.00%    MPKI:0.00
PC:24a94     Total:3      MisBP:0   MisRate:0.00%    MPKI:0.00
PC:11a1a     Total:190929      MisBP:0   MisRate:0.00%    MPKI:0.00
PC:19154     Total:7      MisBP:0   MisRate:0.00%    MPKI:0.00
PC:152ba     Total:11      MisBP:0   MisRate:0.00%    MPKI:0.00
PC:15a20     Total:18334      MisBP:0   MisRate:0.00%    MPKI:0.00
PC:11a2e     Total:155234      MisBP:0   MisRate:0.00%    MPKI:0.00
PC:19168     Total:6      MisBP:0   MisRate:0.00%    MPKI:0.00
PC:14126     Total:6      MisBP:0   MisRate:0.00%    MPKI:0.00
PC:15a2a     Total:18334      MisBP:0   MisRate:0.00%    MPKI:0.00
PC:11a62     Total:85604      MisBP:0   MisRate:0.00%    MPKI:0.00
PC:16aa4     Total:23      MisBP:0   MisRate:0.00%    MPKI:0.00
PC:1919c     Total:6      MisBP:0   MisRate:0.00%    MPKI:0.00
PC:18ffe     Total:52      MisBP:0   MisRate:0.00%    MPKI:0.00
PC:23220     Total:5      MisBP:0   MisRate:0.00%    MPKI:0.00
PC:243c4     Total:1      MisBP:0   MisRate:0.00%    MPKI:0.00
PC:152f6     Total:1424      MisBP:0   MisRate:0.00%    MPKI:0.00
PC:243bc     Total:1      MisBP:0   MisRate:0.00%    MPKI:0.00
PC:2973c     Total:116      MisBP:0   MisRate:0.00%    MPKI:0.00
PC:152f8     Total:1422      MisBP:0   MisRate:0.00%    MPKI:0.00
PC:243be     Total:1      MisBP:0   MisRate:0.00%    MPKI:0.00
PC:152fa     Total:1421      MisBP:0   MisRate:0.00%    MPKI:0.00
PC:243c0     Total:1      MisBP:0   MisRate:0.00%    MPKI:0.00
PC:29740     Total:114      MisBP:0   MisRate:0.00%    MPKI:0.00
PC:152fc     Total:1421      MisBP:0   MisRate:0.00%    MPKI:0.00
PC:243c2     Total:1      MisBP:0   MisRate:0.00%    MPKI:0.00
PC:152fe     Total:1421      MisBP:0   MisRate:0.00%    MPKI:0.00
PC:243b8     Total:1      MisBP:0   MisRate:0.00%    MPKI:0.00
PC:29744     Total:114      MisBP:0   MisRate:0.00%    MPKI:0.00
PC:15300     Total:1410      MisBP:0   MisRate:0.00%    MPKI:0.00
PC:243c6     Total:1      MisBP:0   MisRate:0.00%    MPKI:0.00
PC:243c8     Total:1      MisBP:0   MisRate:0.00%    MPKI:0.00
PC:15306     Total:1188      MisBP:0   MisRate:0.00%    MPKI:0.00
PC:243cc     Total:1      MisBP:0   MisRate:0.00%    MPKI:0.00
PC:29410     Total:439      MisBP:0   MisRate:0.00%    MPKI:0.00
PC:243ce     Total:1      MisBP:0   MisRate:0.00%    MPKI:0.00
PC:1530a     Total:1188      MisBP:0   MisRate:0.00%    MPKI:0.00
PC:243d0     Total:1      MisBP:0   MisRate:0.00%    MPKI:0.00
PC:152d6     Total:23      MisBP:0   MisRate:0.00%    MPKI:0.00
PC:24380     Total:1      MisBP:0   MisRate:0.00%    MPKI:0.00
PC:152be     Total:11      MisBP:0   MisRate:0.00%    MPKI:0.00
PC:24384     Total:7      MisBP:0   MisRate:0.00%    MPKI:0.00
PC:152c2     Total:23      MisBP:0   MisRate:0.00%    MPKI:0.00
PC:152ca     Total:23      MisBP:0   MisRate:0.00%    MPKI:0.00
PC:24390     Total:2      MisBP:0   MisRate:0.00%    MPKI:0.00
PC:152ce     Total:23      MisBP:0   MisRate:0.00%    MPKI:0.00
PC:24394     Total:1      MisBP:0   MisRate:0.00%    MPKI:0.00
PC:152d2     Total:23      MisBP:0   MisRate:0.00%    MPKI:0.00
PC:24398     Total:1      MisBP:0   MisRate:0.00%    MPKI:0.00
PC:16820     Total:3      MisBP:0   MisRate:0.00%    MPKI:0.00
PC:2439c     Total:1      MisBP:0   MisRate:0.00%    MPKI:0.00
PC:152da     Total:23      MisBP:0   MisRate:0.00%    MPKI:0.00
PC:243a0     Total:1      MisBP:0   MisRate:0.00%    MPKI:0.00
PC:152de     Total:23      MisBP:0   MisRate:0.00%    MPKI:0.00
PC:152e2     Total:23      MisBP:0   MisRate:0.00%    MPKI:0.00
PC:243a8     Total:1      MisBP:0   MisRate:0.00%    MPKI:0.00
PC:152e6     Total:247      MisBP:0   MisRate:0.00%    MPKI:0.00
PC:243ac     Total:1      MisBP:0   MisRate:0.00%    MPKI:0.00
PC:152ea     Total:247      MisBP:0   MisRate:0.00%    MPKI:0.00
PC:152f2     Total:1424      MisBP:0   MisRate:0.00%    MPKI:0.00
PC:15522     Total:1      MisBP:0   MisRate:0.00%    MPKI:0.00
PC:151dc     Total:23      MisBP:0   MisRate:0.00%    MPKI:0.00
PC:29620     Total:1570      MisBP:0   MisRate:0.00%    MPKI:0.00
PC:1551c     Total:62117      MisBP:0   MisRate:0.00%    MPKI:0.00
PC:151e0     Total:23      MisBP:0   MisRate:0.00%    MPKI:0.00
PC:29624     Total:1570      MisBP:0   MisRate:0.00%    MPKI:0.00
PC:12d60     Total:6155      MisBP:0   MisRate:0.00%    MPKI:0.00
PC:1551e     Total:1      MisBP:0   MisRate:0.00%    MPKI:0.00
PC:12d62     Total:1231      MisBP:0   MisRate:0.00%    MPKI:0.00
PC:15520     Total:1      MisBP:0   MisRate:0.00%    MPKI:0.00
PC:29628     Total:1570      MisBP:0   MisRate:0.00%    MPKI:0.00
PC:12d64     Total:1231      MisBP:0   MisRate:0.00%    MPKI:0.00
PC:15518     Total:62117      MisBP:0   MisRate:0.00%    MPKI:0.00
PC:12d66     Total:1231      MisBP:0   MisRate:0.00%    MPKI:0.00
PC:15524     Total:1      MisBP:0   MisRate:0.00%    MPKI:0.00
PC:2962c     Total:1570      MisBP:0   MisRate:0.00%    MPKI:0.00
PC:12d68     Total:1230      MisBP:0   MisRate:0.00%    MPKI:0.00
PC:15526     Total:1      MisBP:0   MisRate:0.00%    MPKI:0.00
PC:12d6a     Total:1230      MisBP:0   MisRate:0.00%    MPKI:0.00
PC:15528     Total:1      MisBP:0   MisRate:0.00%    MPKI:0.00
PC:29630     Total:1570      MisBP:0   MisRate:0.00%    MPKI:0.00
PC:1552c     Total:1      MisBP:0   MisRate:0.00%    MPKI:0.00
PC:15530     Total:1      MisBP:0   MisRate:0.00%    MPKI:0.00
PC:128fa     Total:13      MisBP:0   MisRate:0.00%    MPKI:0.00
PC:15086     Total:795521      MisBP:0   MisRate:0.00%    MPKI:0.00
PC:1508a     Total:793940      MisBP:0   MisRate:0.00%    MPKI:0.00
PC:15096     Total:62322      MisBP:0   MisRate:0.00%    MPKI:0.00
PC:1509e     Total:114228      MisBP:0   MisRate:0.00%    MPKI:0.00
PC:150aa     Total:112689      MisBP:0   MisRate:0.00%    MPKI:0.00
PC:150ae     Total:112686      MisBP:0   MisRate:0.00%    MPKI:0.00
PC:128f4     Total:14      MisBP:0   MisRate:0.00%    MPKI:0.00
PC:17936     Total:11      MisBP:0   MisRate:0.00%    MPKI:0.00
PC:150b2     Total:110850      MisBP:0   MisRate:0.00%    MPKI:0.00
PC:17938     Total:11      MisBP:0   MisRate:0.00%    MPKI:0.00
PC:15534     Total:1      MisBP:0   MisRate:0.00%    MPKI:0.00
PC:1793c     Total:13      MisBP:0   MisRate:0.00%    MPKI:0.00
PC:150c6     Total:106649      MisBP:0   MisRate:0.00%    MPKI:0.00
PC:150ca     Total:106647      MisBP:0   MisRate:0.00%    MPKI:0.00
PC:150ce     Total:106599      MisBP:0   MisRate:0.00%    MPKI:0.00
PC:150da     Total:65706      MisBP:0   MisRate:0.00%    MPKI:0.00
PC:150de     Total:266445      MisBP:0   MisRate:0.00%    MPKI:0.00
PC:150e6     Total:231882      MisBP:0   MisRate:0.00%    MPKI:0.00
PC:150fe     Total:216261      MisBP:0   MisRate:0.00%    MPKI:0.00
PC:241c4     Total:3      MisBP:0   MisRate:0.00%    MPKI:0.00
PC:15516     Total:62130      MisBP:0   MisRate:0.00%    MPKI:0.00
PC:18f90     Total:62      MisBP:0   MisRate:0.00%    MPKI:0.00
PC:292d8     Total:1      MisBP:0   MisRate:0.00%    MPKI:0.00
PC:3839e     Total:1      MisBP:0   MisRate:0.00%    MPKI:0.00
PC:29634     Total:1570      MisBP:0   MisRate:0.00%    MPKI:0.00
PC:29638     Total:1570      MisBP:0   MisRate:0.00%    MPKI:0.00
PC:151f4     Total:4      MisBP:0   MisRate:0.00%    MPKI:0.00
PC:242ba     Total:1      MisBP:0   MisRate:0.00%    MPKI:0.00
PC:242e2     Total:2      MisBP:0   MisRate:0.00%    MPKI:0.00
PC:1526e     Total:13      MisBP:0   MisRate:0.00%    MPKI:0.00
PC:24334     Total:6      MisBP:0   MisRate:0.00%    MPKI:0.00
PC:167d2     Total:573      MisBP:0   MisRate:0.00%    MPKI:0.00
PC:14e94     Total:9692      MisBP:0   MisRate:0.00%    MPKI:0.00
PC:167d8     Total:573      MisBP:0   MisRate:0.00%    MPKI:0.00
PC:18f96     Total:62      MisBP:0   MisRate:0.00%    MPKI:0.00
PC:167e2     Total:2740      MisBP:0   MisRate:0.00%    MPKI:0.00
PC:167e8     Total:3149      MisBP:0   MisRate:0.00%    MPKI:0.00
PC:18fa6     Total:59      MisBP:0   MisRate:0.00%    MPKI:0.00
PC:167ec     Total:3149      MisBP:0   MisRate:0.00%    MPKI:0.00
PC:18faa     Total:59      MisBP:0   MisRate:0.00%    MPKI:0.00
PC:167f4     Total:31      MisBP:0   MisRate:0.00%    MPKI:0.00
PC:167f8     Total:31      MisBP:0   MisRate:0.00%    MPKI:0.00
PC:18fb6     Total:56      MisBP:0   MisRate:0.00%    MPKI:0.00
PC:14e1a     Total:9787      MisBP:0   MisRate:0.00%    MPKI:0.00
PC:2963c     Total:1570      MisBP:0   MisRate:0.00%    MPKI:0.00
PC:12d78     Total:1230      MisBP:0   MisRate:0.00%    MPKI:0.00
PC:15536     Total:1      MisBP:0   MisRate:0.00%    MPKI:0.00
PC:1553a     Total:1      MisBP:0   MisRate:0.00%    MPKI:0.00
PC:12d7e     Total:2564      MisBP:0   MisRate:0.00%    MPKI:0.00
PC:1553c     Total:1      MisBP:0   MisRate:0.00%    MPKI:0.00
PC:29644     Total:1570      MisBP:0   MisRate:0.00%    MPKI:0.00
PC:12d80     Total:2542      MisBP:0   MisRate:0.00%    MPKI:0.00
PC:1553e     Total:1      MisBP:0   MisRate:0.00%    MPKI:0.00
PC:15156     Total:4      MisBP:0   MisRate:0.00%    MPKI:0.00
PC:243d4     Total:1      MisBP:0   MisRate:0.00%    MPKI:0.00
PC:2925e     Total:8      MisBP:0   MisRate:0.00%    MPKI:0.00
PC:15182     Total:3      MisBP:0   MisRate:0.00%    MPKI:0.00
PC:24248     Total:2      MisBP:0   MisRate:0.00%    MPKI:0.00
PC:10214     Total:24      MisBP:0   MisRate:0.00%    MPKI:0.00
PC:15256     Total:2      MisBP:0   MisRate:0.00%    MPKI:0.00
PC:2431c     Total:6      MisBP:0   MisRate:0.00%    MPKI:0.00
PC:295d8     Total:1584      MisBP:0   MisRate:0.00%    MPKI:0.00
PC:15194     Total:3      MisBP:0   MisRate:0.00%    MPKI:0.00
PC:29614     Total:1570      MisBP:0   MisRate:0.00%    MPKI:0.00
PC:151d0     Total:3      MisBP:0   MisRate:0.00%    MPKI:0.00
PC:297d4     Total:80      MisBP:0   MisRate:0.00%    MPKI:0.00
PC:15382     Total:2      MisBP:0   MisRate:0.00%    MPKI:0.00
PC:15386     Total:2      MisBP:0   MisRate:0.00%    MPKI:0.00
PC:297cc     Total:80      MisBP:0   MisRate:0.00%    MPKI:0.00
PC:15388     Total:2      MisBP:0   MisRate:0.00%    MPKI:0.00
PC:1504c     Total:5      MisBP:0   MisRate:0.00%    MPKI:0.00
PC:29490     Total:64      MisBP:0   MisRate:0.00%    MPKI:0.00
PC:1538a     Total:2      MisBP:0   MisRate:0.00%    MPKI:0.00
PC:297d0     Total:160      MisBP:0   MisRate:0.00%    MPKI:0.00
PC:1538c     Total:2      MisBP:0   MisRate:0.00%    MPKI:0.00
PC:15050     Total:5      MisBP:0   MisRate:0.00%    MPKI:0.00
PC:29494     Total:64      MisBP:0   MisRate:0.00%    MPKI:0.00
PC:29488     Total:64      MisBP:0   MisRate:0.00%    MPKI:0.00
PC:15390     Total:2      MisBP:0   MisRate:0.00%    MPKI:0.00
PC:15054     Total:5      MisBP:0   MisRate:0.00%    MPKI:0.00
PC:29498     Total:64      MisBP:0   MisRate:0.00%    MPKI:0.00
PC:15392     Total:2      MisBP:0   MisRate:0.00%    MPKI:0.00
PC:297d8     Total:80      MisBP:0   MisRate:0.00%    MPKI:0.00
PC:15394     Total:2      MisBP:0   MisRate:0.00%    MPKI:0.00
PC:15058     Total:5      MisBP:0   MisRate:0.00%    MPKI:0.00
PC:2949c     Total:64      MisBP:0   MisRate:0.00%    MPKI:0.00
PC:15396     Total:2      MisBP:0   MisRate:0.00%    MPKI:0.00
PC:297dc     Total:240      MisBP:0   MisRate:0.00%    MPKI:0.00
PC:16894     Total:60      MisBP:0   MisRate:0.00%    MPKI:0.00
PC:19028     Total:51      MisBP:0   MisRate:0.00%    MPKI:0.00
PC:16876     Total:71      MisBP:0   MisRate:0.00%    MPKI:0.00
PC:19034     Total:49      MisBP:0   MisRate:0.00%    MPKI:0.00
PC:1687e     Total:67      MisBP:0   MisRate:0.00%    MPKI:0.00
PC:1903c     Total:49      MisBP:0   MisRate:0.00%    MPKI:0.00
PC:19042     Total:46      MisBP:0   MisRate:0.00%    MPKI:0.00
PC:1688a     Total:67      MisBP:0   MisRate:0.00%    MPKI:0.00
PC:19048     Total:46      MisBP:0   MisRate:0.00%    MPKI:0.00
PC:16890     Total:67      MisBP:0   MisRate:0.00%    MPKI:0.00
PC:1904e     Total:46      MisBP:0   MisRate:0.00%    MPKI:0.00
PC:15398     Total:2      MisBP:0   MisRate:0.00%    MPKI:0.00
PC:19052     Total:46      MisBP:0   MisRate:0.00%    MPKI:0.00
PC:168a6     Total:5      MisBP:0   MisRate:0.00%    MPKI:0.00
PC:19064     Total:38      MisBP:0   MisRate:0.00%    MPKI:0.00
PC:11aca     Total:11623      MisBP:0   MisRate:0.00%    MPKI:0.00
PC:16b0c     Total:25      MisBP:0   MisRate:0.00%    MPKI:0.00
PC:19204     Total:4      MisBP:0   MisRate:0.00%    MPKI:0.00
PC:15ac6     Total:18253      MisBP:0   MisRate:0.00%    MPKI:0.00
PC:15ad0     Total:18259      MisBP:0   MisRate:0.00%    MPKI:0.00
PC:297c4     Total:102      MisBP:0   MisRate:0.00%    MPKI:0.00
PC:15380     Total:2      MisBP:0   MisRate:0.00%    MPKI:0.00
PC:294c0     Total:158      MisBP:0   MisRate:0.00%    MPKI:0.00
PC:153b2     Total:60      MisBP:0   MisRate:0.00%    MPKI:0.00
PC:297f8     Total:15602      MisBP:0   MisRate:0.00%    MPKI:0.00
PC:153b4     Total:60      MisBP:0   MisRate:0.00%    MPKI:0.00
PC:15078     Total:820622      MisBP:0   MisRate:0.00%    MPKI:0.00
PC:294bc     Total:350      MisBP:0   MisRate:0.00%    MPKI:0.00
PC:153b6     Total:60      MisBP:0   MisRate:0.00%    MPKI:0.00
PC:38584     Total:1      MisBP:0   MisRate:0.00%    MPKI:0.00
PC:297fc     Total:15575      MisBP:0   MisRate:0.00%    MPKI:0.00
PC:153b8     Total:60      MisBP:0   MisRate:0.00%    MPKI:0.00
PC:1507c     Total:820189      MisBP:0   MisRate:0.00%    MPKI:0.00
PC:153ae     Total:11      MisBP:0   MisRate:0.00%    MPKI:0.00
PC:153ba     Total:60      MisBP:0   MisRate:0.00%    MPKI:0.00
PC:38588     Total:1      MisBP:0   MisRate:0.00%    MPKI:0.00
PC:29800     Total:5165      MisBP:0   MisRate:0.00%    MPKI:0.00
PC:153bc     Total:10492      MisBP:0   MisRate:0.00%    MPKI:0.00
PC:15080     Total:795712      MisBP:0   MisRate:0.00%    MPKI:0.00
PC:294c4     Total:312      MisBP:0   MisRate:0.00%    MPKI:0.00
PC:153c0     Total:5208      MisBP:0   MisRate:0.00%    MPKI:0.00
PC:294c8     Total:156      MisBP:0   MisRate:0.00%    MPKI:0.00
PC:3858e     Total:1      MisBP:0   MisRate:0.00%    MPKI:0.00
PC:29808     Total:252      MisBP:0   MisRate:0.00%    MPKI:0.00
PC:294a8     Total:175      MisBP:0   MisRate:0.00%    MPKI:0.00
PC:294a0     Total:63      MisBP:0   MisRate:0.00%    MPKI:0.00
PC:1539a     Total:2      MisBP:0   MisRate:0.00%    MPKI:0.00
PC:297e0     Total:240      MisBP:0   MisRate:0.00%    MPKI:0.00
PC:1539c     Total:14      MisBP:0   MisRate:0.00%    MPKI:0.00
PC:15060     Total:5      MisBP:0   MisRate:0.00%    MPKI:0.00
PC:294a4     Total:175      MisBP:0   MisRate:0.00%    MPKI:0.00
PC:1539e     Total:14      MisBP:0   MisRate:0.00%    MPKI:0.00
PC:297e4     Total:80      MisBP:0   MisRate:0.00%    MPKI:0.00
PC:153a0     Total:181      MisBP:0   MisRate:0.00%    MPKI:0.00
PC:15064     Total:5      MisBP:0   MisRate:0.00%    MPKI:0.00
PC:2324a     Total:4      MisBP:0   MisRate:0.00%    MPKI:0.00
PC:153a2     Total:362      MisBP:0   MisRate:0.00%    MPKI:0.00
PC:153a6     Total:181      MisBP:0   MisRate:0.00%    MPKI:0.00
PC:297ec     Total:5219      MisBP:0   MisRate:0.00%    MPKI:0.00
PC:1506c     Total:5      MisBP:0   MisRate:0.00%    MPKI:0.00
PC:294b0     Total:350      MisBP:0   MisRate:0.00%    MPKI:0.00
PC:153aa     Total:11      MisBP:0   MisRate:0.00%    MPKI:0.00
PC:297f0     Total:15646      MisBP:0   MisRate:0.00%    MPKI:0.00
PC:153ac     Total:11      MisBP:0   MisRate:0.00%    MPKI:0.00
PC:15070     Total:1647110      MisBP:0   MisRate:0.00%    MPKI:0.00
PC:294b4     Total:350      MisBP:0   MisRate:0.00%    MPKI:0.00
PC:15336     Total:5      MisBP:0   MisRate:0.00%    MPKI:0.00
PC:243f2     Total:1      MisBP:0   MisRate:0.00%    MPKI:0.00
PC:29774     Total:113      MisBP:0   MisRate:0.00%    MPKI:0.00
PC:15330     Total:5      MisBP:0   MisRate:0.00%    MPKI:0.00
PC:29438     Total:438      MisBP:0   MisRate:0.00%    MPKI:0.00
PC:243f6     Total:1      MisBP:0   MisRate:0.00%    MPKI:0.00
PC:15332     Total:5      MisBP:0   MisRate:0.00%    MPKI:0.00
PC:243f8     Total:1      MisBP:0   MisRate:0.00%    MPKI:0.00
PC:29778     Total:113      MisBP:0   MisRate:0.00%    MPKI:0.00
PC:15334     Total:5      MisBP:0   MisRate:0.00%    MPKI:0.00
PC:2943c     Total:438      MisBP:0   MisRate:0.00%    MPKI:0.00
PC:243fa     Total:1      MisBP:0   MisRate:0.00%    MPKI:0.00
PC:29434     Total:438      MisBP:0   MisRate:0.00%    MPKI:0.00
PC:243fc     Total:1      MisBP:0   MisRate:0.00%    MPKI:0.00
PC:1533a     Total:5      MisBP:0   MisRate:0.00%    MPKI:0.00
PC:1533e     Total:5      MisBP:0   MisRate:0.00%    MPKI:0.00
PC:29784     Total:113      MisBP:0   MisRate:0.00%    MPKI:0.00
PC:15340     Total:3      MisBP:0   MisRate:0.00%    MPKI:0.00
PC:15342     Total:3      MisBP:0   MisRate:0.00%    MPKI:0.00
PC:15346     Total:3      MisBP:0   MisRate:0.00%    MPKI:0.00
PC:2978c     Total:113      MisBP:0   MisRate:0.00%    MPKI:0.00
PC:15348     Total:3      MisBP:0   MisRate:0.00%    MPKI:0.00
PC:29790     Total:82      MisBP:0   MisRate:0.00%    MPKI:0.00
PC:29424     Total:439      MisBP:0   MisRate:0.00%    MPKI:0.00
PC:29754     Total:114      MisBP:0   MisRate:0.00%    MPKI:0.00
PC:15310     Total:14      MisBP:0   MisRate:0.00%    MPKI:0.00
PC:15312     Total:14      MisBP:0   MisRate:0.00%    MPKI:0.00
PC:243d8     Total:1      MisBP:0   MisRate:0.00%    MPKI:0.00
PC:29758     Total:114      MisBP:0   MisRate:0.00%    MPKI:0.00
PC:15314     Total:14      MisBP:0   MisRate:0.00%    MPKI:0.00
PC:2975c     Total:114      MisBP:0   MisRate:0.00%    MPKI:0.00
PC:15318     Total:14      MisBP:0   MisRate:0.00%    MPKI:0.00
PC:29760     Total:113      MisBP:0   MisRate:0.00%    MPKI:0.00
PC:1531c     Total:14      MisBP:0   MisRate:0.00%    MPKI:0.00
PC:1534c     Total:3      MisBP:0   MisRate:0.00%    MPKI:0.00
PC:29764     Total:113      MisBP:0   MisRate:0.00%    MPKI:0.00
PC:15320     Total:14      MisBP:0   MisRate:0.00%    MPKI:0.00
PC:29428     Total:438      MisBP:0   MisRate:0.00%    MPKI:0.00
PC:243e6     Total:1      MisBP:0   MisRate:0.00%    MPKI:0.00
PC:15322     Total:15      MisBP:0   MisRate:0.00%    MPKI:0.00
PC:243e8     Total:1      MisBP:0   MisRate:0.00%    MPKI:0.00
PC:29768     Total:113      MisBP:0   MisRate:0.00%    MPKI:0.00
PC:15324     Total:15      MisBP:0   MisRate:0.00%    MPKI:0.00
PC:29430     Total:438      MisBP:0   MisRate:0.00%    MPKI:0.00
PC:243ee     Total:1      MisBP:0   MisRate:0.00%    MPKI:0.00
PC:1900c     Total:52      MisBP:0   MisRate:0.00%    MPKI:0.00
PC:15374     Total:3      MisBP:0   MisRate:0.00%    MPKI:0.00
PC:2947c     Total:73      MisBP:0   MisRate:0.00%    MPKI:0.00
PC:15376     Total:3      MisBP:0   MisRate:0.00%    MPKI:0.00
PC:1537a     Total:3      MisBP:0   MisRate:0.00%    MPKI:0.00
PC:297c0     Total:102      MisBP:0   MisRate:0.00%    MPKI:0.00
PC:1537c     Total:3      MisBP:0   MisRate:0.00%    MPKI:0.00
PC:1684a     Total:8768      MisBP:0   MisRate:0.00%    MPKI:0.00
PC:2322a     Total:5      MisBP:0   MisRate:0.00%    MPKI:0.00
PC:19008     Total:52      MisBP:0   MisRate:0.00%    MPKI:0.00
PC:2322e     Total:5      MisBP:0   MisRate:0.00%    MPKI:0.00
PC:297b8     Total:104      MisBP:0   MisRate:0.00%    MPKI:0.00
PC:1685e     Total:13      MisBP:0   MisRate:0.00%    MPKI:0.00
PC:166c0     Total:226      MisBP:0   MisRate:0.00%    MPKI:0.00
PC:208e2     Total:10      MisBP:0   MisRate:0.00%    MPKI:0.00
PC:16522     Total:18449      MisBP:0   MisRate:0.00%    MPKI:0.00
PC:2a966     Total:13      MisBP:0   MisRate:0.00%    MPKI:0.00
PC:2323e     Total:4      MisBP:0   MisRate:0.00%    MPKI:0.00
PC:1901c     Total:51      MisBP:0   MisRate:0.00%    MPKI:0.00
PC:23246     Total:4      MisBP:0   MisRate:0.00%    MPKI:0.00
PC:19024     Total:51      MisBP:0   MisRate:0.00%    MPKI:0.00
PC:1686a     Total:142      MisBP:0   MisRate:0.00%    MPKI:0.00
PC:15362     Total:3      MisBP:0   MisRate:0.00%    MPKI:0.00
PC:1534e     Total:3      MisBP:0   MisRate:0.00%    MPKI:0.00
PC:15352     Total:3      MisBP:0   MisRate:0.00%    MPKI:0.00
PC:29798     Total:82      MisBP:0   MisRate:0.00%    MPKI:0.00
PC:15354     Total:3      MisBP:0   MisRate:0.00%    MPKI:0.00
PC:2979c     Total:82      MisBP:0   MisRate:0.00%    MPKI:0.00
PC:15358     Total:3      MisBP:0   MisRate:0.00%    MPKI:0.00
PC:1535a     Total:3      MisBP:0   MisRate:0.00%    MPKI:0.00
PC:1535e     Total:3      MisBP:0   MisRate:0.00%    MPKI:0.00
PC:297a4     Total:53      MisBP:0   MisRate:0.00%    MPKI:0.00
PC:15360     Total:3      MisBP:0   MisRate:0.00%    MPKI:0.00
PC:15dac     Total:18379      MisBP:0   MisRate:0.00%    MPKI:0.00
PC:297a8     Total:53      MisBP:0   MisRate:0.00%    MPKI:0.00
PC:15364     Total:3      MisBP:0   MisRate:0.00%    MPKI:0.00
PC:15366     Total:3      MisBP:0   MisRate:0.00%    MPKI:0.00
PC:297ac     Total:106      MisBP:0   MisRate:0.00%    MPKI:0.00
PC:15368     Total:3      MisBP:0   MisRate:0.00%    MPKI:0.00
PC:1536a     Total:3      MisBP:0   MisRate:0.00%    MPKI:0.00
PC:1536e     Total:3      MisBP:0   MisRate:0.00%    MPKI:0.00
PC:297b4     Total:52      MisBP:0   MisRate:0.00%    MPKI:0.00
PC:15370     Total:3      MisBP:0   MisRate:0.00%    MPKI:0.00
PC:29478     Total:73      MisBP:0   MisRate:0.00%    MPKI:0.00
PC:125a6     Total:1      MisBP:0   MisRate:0.00%    MPKI:0.00
PC:12588     Total:1      MisBP:0   MisRate:0.00%    MPKI:0.00
PC:1258c     Total:1      MisBP:0   MisRate:0.00%    MPKI:0.00
PC:12590     Total:1      MisBP:0   MisRate:0.00%    MPKI:0.00
PC:12592     Total:1      MisBP:0   MisRate:0.00%    MPKI:0.00
PC:12594     Total:1      MisBP:0   MisRate:0.00%    MPKI:0.00
PC:12598     Total:1      MisBP:0   MisRate:0.00%    MPKI:0.00
PC:1259a     Total:1      MisBP:0   MisRate:0.00%    MPKI:0.00
PC:1259c     Total:1      MisBP:0   MisRate:0.00%    MPKI:0.00
PC:125a0     Total:1      MisBP:0   MisRate:0.00%    MPKI:0.00
PC:125a2     Total:1      MisBP:0   MisRate:0.00%    MPKI:0.00
PC:125a4     Total:1      MisBP:0   MisRate:0.00%    MPKI:0.00
PC:12586     Total:1      MisBP:0   MisRate:0.00%    MPKI:0.00
PC:125a8     Total:1      MisBP:0   MisRate:0.00%    MPKI:0.00
PC:125aa     Total:1      MisBP:0   MisRate:0.00%    MPKI:0.00
PC:125ac     Total:1      MisBP:0   MisRate:0.00%    MPKI:0.00
PC:125ae     Total:1      MisBP:0   MisRate:0.00%    MPKI:0.00
PC:125b4     Total:2      MisBP:0   MisRate:0.00%    MPKI:0.00
PC:125b6     Total:4      MisBP:0   MisRate:0.00%    MPKI:0.00
PC:125ba     Total:2      MisBP:0   MisRate:0.00%    MPKI:0.00
PC:125bc     Total:4      MisBP:0   MisRate:0.00%    MPKI:0.00
PC:125c0     Total:2      MisBP:0   MisRate:0.00%    MPKI:0.00
PC:125c2     Total:2      MisBP:0   MisRate:0.00%    MPKI:0.00
PC:14b08     Total:1      MisBP:0   MisRate:0.00%    MPKI:0.00
PC:14ae6     Total:1      MisBP:0   MisRate:0.00%    MPKI:0.00
PC:14ae8     Total:1      MisBP:0   MisRate:0.00%    MPKI:0.00
PC:14aec     Total:1      MisBP:0   MisRate:0.00%    MPKI:0.00
PC:14af0     Total:1      MisBP:0   MisRate:0.00%    MPKI:0.00
PC:14af4     Total:1      MisBP:0   MisRate:0.00%    MPKI:0.00
PC:14af8     Total:1      MisBP:0   MisRate:0.00%    MPKI:0.00
PC:14afa     Total:1      MisBP:0   MisRate:0.00%    MPKI:0.00
PC:14afe     Total:1      MisBP:0   MisRate:0.00%    MPKI:0.00
PC:14b02     Total:1      MisBP:0   MisRate:0.00%    MPKI:0.00
PC:14b04     Total:1      MisBP:0   MisRate:0.00%    MPKI:0.00
PC:125c4     Total:2      MisBP:0   MisRate:0.00%    MPKI:0.00
PC:14b0a     Total:1      MisBP:0   MisRate:0.00%    MPKI:0.00
PC:14b0e     Total:2      MisBP:0   MisRate:0.00%    MPKI:0.00
PC:14b10     Total:2      MisBP:0   MisRate:0.00%    MPKI:0.00
PC:12574     Total:10      MisBP:0   MisRate:0.00%    MPKI:0.00
PC:12578     Total:1      MisBP:0   MisRate:0.00%    MPKI:0.00
PC:1257c     Total:1      MisBP:0   MisRate:0.00%    MPKI:0.00
PC:1257e     Total:1      MisBP:0   MisRate:0.00%    MPKI:0.00
PC:12580     Total:1      MisBP:0   MisRate:0.00%    MPKI:0.00
PC:12582     Total:1      MisBP:0   MisRate:0.00%    MPKI:0.00
PC:12584     Total:1      MisBP:0   MisRate:0.00%    MPKI:0.00
PC:11b74     Total:1      MisBP:0   MisRate:0.00%    MPKI:0.00
PC:12672     Total:1      MisBP:0   MisRate:0.00%    MPKI:0.00
PC:17516     Total:445116      MisBP:0   MisRate:0.00%    MPKI:0.00
PC:21738     Total:7      MisBP:0   MisRate:0.00%    MPKI:0.00
PC:176b4     Total:6      MisBP:0   MisRate:0.00%    MPKI:0.00
PC:12676     Total:1      MisBP:0   MisRate:0.00%    MPKI:0.00
PC:1751a     Total:444780      MisBP:0   MisRate:0.00%    MPKI:0.00
PC:2173c     Total:1      MisBP:0   MisRate:0.00%    MPKI:0.00
PC:176b8     Total:6      MisBP:0   MisRate:0.00%    MPKI:0.00
PC:11b6e     Total:1      MisBP:0   MisRate:0.00%    MPKI:0.00
PC:11b70     Total:1      MisBP:0   MisRate:0.00%    MPKI:0.00
PC:11b72     Total:1      MisBP:0   MisRate:0.00%    MPKI:0.00
PC:12670     Total:1      MisBP:0   MisRate:0.00%    MPKI:0.00
PC:11b76     Total:1      MisBP:0   MisRate:0.00%    MPKI:0.00
PC:11b78     Total:1      MisBP:0   MisRate:0.00%    MPKI:0.00
PC:11b7a     Total:1      MisBP:0   MisRate:0.00%    MPKI:0.00
PC:11b7e     Total:1      MisBP:0   MisRate:0.00%    MPKI:0.00
PC:11b80     Total:1      MisBP:0   MisRate:0.00%    MPKI:0.00
PC:11b82     Total:1      MisBP:0   MisRate:0.00%    MPKI:0.00
PC:11b84     Total:1      MisBP:0   MisRate:0.00%    MPKI:0.00
PC:11b86     Total:1      MisBP:0   MisRate:0.00%    MPKI:0.00
PC:11b8a     Total:1      MisBP:0   MisRate:0.00%    MPKI:0.00
PC:11b8e     Total:1      MisBP:0   MisRate:0.00%    MPKI:0.00
PC:1264a     Total:1      MisBP:0   MisRate:0.00%    MPKI:0.00
PC:11b58     Total:20      MisBP:0   MisRate:0.00%    MPKI:0.00
PC:11b5c     Total:2      MisBP:0   MisRate:0.00%    MPKI:0.00
PC:11b60     Total:2      MisBP:0   MisRate:0.00%    MPKI:0.00
PC:11b62     Total:2      MisBP:0   MisRate:0.00%    MPKI:0.00
PC:16ba4     Total:13      MisBP:0   MisRate:0.00%    MPKI:0.00
PC:11b64     Total:2      MisBP:0   MisRate:0.00%    MPKI:0.00
PC:11b68     Total:2      MisBP:0   MisRate:0.00%    MPKI:0.00
PC:11b6a     Total:2      MisBP:0   MisRate:0.00%    MPKI:0.00
PC:12644     Total:1      MisBP:0   MisRate:0.00%    MPKI:0.00
PC:12648     Total:1      MisBP:0   MisRate:0.00%    MPKI:0.00
PC:14ae4     Total:1      MisBP:0   MisRate:0.00%    MPKI:0.00
PC:1264e     Total:1      MisBP:0   MisRate:0.00%    MPKI:0.00
PC:12652     Total:1      MisBP:0   MisRate:0.00%    MPKI:0.00
PC:12656     Total:1      MisBP:0   MisRate:0.00%    MPKI:0.00
PC:1265a     Total:1      MisBP:0   MisRate:0.00%    MPKI:0.00
PC:1265c     Total:1      MisBP:0   MisRate:0.00%    MPKI:0.00
PC:1265e     Total:1      MisBP:0   MisRate:0.00%    MPKI:0.00
PC:12662     Total:1      MisBP:0   MisRate:0.00%    MPKI:0.00
PC:12666     Total:1      MisBP:0   MisRate:0.00%    MPKI:0.00
PC:1266a     Total:1      MisBP:0   MisRate:0.00%    MPKI:0.00
PC:1266e     Total:1      MisBP:0   MisRate:0.00%    MPKI:0.00
PC:13362     Total:2      MisBP:0   MisRate:0.00%    MPKI:0.00
PC:140c8     Total:11      MisBP:0   MisRate:0.00%    MPKI:0.00
PC:1e2ea     Total:1      MisBP:0   MisRate:0.00%    MPKI:0.00
PC:140cc     Total:11      MisBP:0   MisRate:0.00%    MPKI:0.00
PC:1e2ee     Total:1      MisBP:0   MisRate:0.00%    MPKI:0.00
PC:140ce     Total:11      MisBP:0   MisRate:0.00%    MPKI:0.00
PC:1e2f0     Total:1      MisBP:0   MisRate:0.00%    MPKI:0.00
PC:1e2f6     Total:1      MisBP:0   MisRate:0.00%    MPKI:0.00
PC:1e2fa     Total:1      MisBP:0   MisRate:0.00%    MPKI:0.00
PC:1e2fc     Total:1      MisBP:0   MisRate:0.00%    MPKI:0.00
PC:1335e     Total:2      MisBP:0   MisRate:0.00%    MPKI:0.00
PC:13360     Total:2      MisBP:0   MisRate:0.00%    MPKI:0.00
PC:1e2e8     Total:1      MisBP:0   MisRate:0.00%    MPKI:0.00
PC:13364     Total:2      MisBP:0   MisRate:0.00%    MPKI:0.00
PC:13366     Total:2      MisBP:0   MisRate:0.00%    MPKI:0.00
PC:13368     Total:2      MisBP:0   MisRate:0.00%    MPKI:0.00
PC:1336a     Total:2      MisBP:0   MisRate:0.00%    MPKI:0.00
PC:1336c     Total:2      MisBP:0   MisRate:0.00%    MPKI:0.00
PC:13370     Total:5      MisBP:0   MisRate:0.00%    MPKI:0.00
PC:13372     Total:5      MisBP:0   MisRate:0.00%    MPKI:0.00
PC:13374     Total:5      MisBP:0   MisRate:0.00%    MPKI:0.00
PC:13376     Total:5      MisBP:0   MisRate:0.00%    MPKI:0.00
PC:1337a     Total:7      MisBP:0   MisRate:0.00%    MPKI:0.00
PC:1e2d4     Total:1      MisBP:0   MisRate:0.00%    MPKI:0.00
PC:1e2c8     Total:1      MisBP:0   MisRate:0.00%    MPKI:0.00
PC:140a8     Total:6      MisBP:0   MisRate:0.00%    MPKI:0.00
PC:1e2ca     Total:1      MisBP:0   MisRate:0.00%    MPKI:0.00
PC:140aa     Total:6      MisBP:0   MisRate:0.00%    MPKI:0.00
PC:1e2cc     Total:1      MisBP:0   MisRate:0.00%    MPKI:0.00
PC:140ac     Total:6      MisBP:0   MisRate:0.00%    MPKI:0.00
PC:1e2ce     Total:1      MisBP:0   MisRate:0.00%    MPKI:0.00
PC:140b0     Total:6      MisBP:0   MisRate:0.00%    MPKI:0.00
PC:1e2d2     Total:1      MisBP:0   MisRate:0.00%    MPKI:0.00
PC:140b2     Total:6      MisBP:0   MisRate:0.00%    MPKI:0.00
PC:1337c     Total:7      MisBP:0   MisRate:0.00%    MPKI:0.00
PC:1e2d6     Total:1      MisBP:0   MisRate:0.00%    MPKI:0.00
PC:140ba     Total:6      MisBP:0   MisRate:0.00%    MPKI:0.00
PC:1e2dc     Total:1      MisBP:0   MisRate:0.00%    MPKI:0.00
PC:140c0     Total:2      MisBP:0   MisRate:0.00%    MPKI:0.00
PC:1e2e2     Total:1      MisBP:0   MisRate:0.00%    MPKI:0.00
PC:140c2     Total:10      MisBP:0   MisRate:0.00%    MPKI:0.00
PC:1e2e4     Total:1      MisBP:0   MisRate:0.00%    MPKI:0.00
PC:140c4     Total:10      MisBP:0   MisRate:0.00%    MPKI:0.00
PC:1e2e6     Total:1      MisBP:0   MisRate:0.00%    MPKI:0.00
PC:140c6     Total:10      MisBP:0   MisRate:0.00%    MPKI:0.00
PC:14ac6     Total:1      MisBP:0   MisRate:0.00%    MPKI:0.00
PC:17e32     Total:3      MisBP:0   MisRate:0.00%    MPKI:0.00
PC:12df2     Total:1      MisBP:0   MisRate:0.00%    MPKI:0.00
PC:12df4     Total:1      MisBP:0   MisRate:0.00%    MPKI:0.00
PC:17e36     Total:3      MisBP:0   MisRate:0.00%    MPKI:0.00
PC:12df6     Total:1      MisBP:0   MisRate:0.00%    MPKI:0.00
PC:14ac0     Total:1      MisBP:0   MisRate:0.00%    MPKI:0.00
PC:5b9b0     Total:1      MisBP:0   MisRate:0.00%    MPKI:0.00
PC:14ac2     Total:1      MisBP:0   MisRate:0.00%    MPKI:0.00
PC:5b9b2     Total:1      MisBP:0   MisRate:0.00%    MPKI:0.00
PC:14ac4     Total:1      MisBP:0   MisRate:0.00%    MPKI:0.00
PC:12df0     Total:3      MisBP:0   MisRate:0.00%    MPKI:0.00
PC:5b9b6     Total:1      MisBP:0   MisRate:0.00%    MPKI:0.00
PC:14ac8     Total:1      MisBP:0   MisRate:0.00%    MPKI:0.00
PC:5b9ba     Total:1      MisBP:0   MisRate:0.00%    MPKI:0.00
PC:14acc     Total:1      MisBP:0   MisRate:0.00%    MPKI:0.00
PC:14ad0     Total:1      MisBP:0   MisRate:0.00%    MPKI:0.00
PC:14ad4     Total:1      MisBP:0   MisRate:0.00%    MPKI:0.00
PC:14ad6     Total:1      MisBP:0   MisRate:0.00%    MPKI:0.00
PC:14ada     Total:1      MisBP:0   MisRate:0.00%    MPKI:0.00
PC:14ade     Total:1      MisBP:0   MisRate:0.00%    MPKI:0.00
PC:14ae0     Total:1      MisBP:0   MisRate:0.00%    MPKI:0.00
PC:23b7a     Total:2      MisBP:0   MisRate:0.00%    MPKI:0.00
PC:1337e     Total:28      MisBP:0   MisRate:0.00%    MPKI:0.00
PC:1303a     Total:3      MisBP:0   MisRate:0.00%    MPKI:0.00
PC:1303e     Total:3      MisBP:0   MisRate:0.00%    MPKI:0.00
PC:12fe0     Total:1      MisBP:0   MisRate:0.00%    MPKI:0.00
PC:12fea     Total:1      MisBP:0   MisRate:0.00%    MPKI:0.00
PC:12fee     Total:1      MisBP:0   MisRate:0.00%    MPKI:0.00
PC:12ff2     Total:1      MisBP:0   MisRate:0.00%    MPKI:0.00
PC:13044     Total:2      MisBP:0   MisRate:0.00%    MPKI:0.00
PC:13056     Total:4      MisBP:0   MisRate:0.00%    MPKI:0.00
PC:14ab4     Total:20      MisBP:0   MisRate:0.00%    MPKI:0.00
PC:11b92     Total:1      MisBP:0   MisRate:0.00%    MPKI:0.00
PC:14ab8     Total:2      MisBP:0   MisRate:0.00%    MPKI:0.00
PC:14aba     Total:6      MisBP:0   MisRate:0.00%    MPKI:0.00
PC:14abe     Total:2      MisBP:0   MisRate:0.00%    MPKI:0.00
PC:12de8     Total:1      MisBP:0   MisRate:0.00%    MPKI:0.00
PC:17e2a     Total:3      MisBP:0   MisRate:0.00%    MPKI:0.00
PC:12dea     Total:1      MisBP:0   MisRate:0.00%    MPKI:0.00
PC:17e2c     Total:3      MisBP:0   MisRate:0.00%    MPKI:0.00
PC:12dec     Total:1      MisBP:0   MisRate:0.00%    MPKI:0.00
PC:17e2e     Total:3      MisBP:0   MisRate:0.00%    MPKI:0.00
PC:12dee     Total:1      MisBP:0   MisRate:0.00%    MPKI:0.00
PC:11c88     Total:88      MisBP:0   MisRate:0.00%    MPKI:0.00
PC:25d80     Total:3      MisBP:0   MisRate:0.00%    MPKI:0.00
PC:11c7a     Total:6      MisBP:0   MisRate:0.00%    MPKI:0.00
PC:25d82     Total:3      MisBP:0   MisRate:0.00%    MPKI:0.00
PC:11c7e     Total:6      MisBP:0   MisRate:0.00%    MPKI:0.00
PC:25d86     Total:3      MisBP:0   MisRate:0.00%    MPKI:0.00
PC:11c80     Total:3      MisBP:0   MisRate:0.00%    MPKI:0.00
PC:25d88     Total:3      MisBP:0   MisRate:0.00%    MPKI:0.00
PC:11c82     Total:88      MisBP:0   MisRate:0.00%    MPKI:0.00
PC:25d8a     Total:3      MisBP:0   MisRate:0.00%    MPKI:0.00
PC:11c86     Total:44      MisBP:0   MisRate:0.00%    MPKI:0.00
PC:25d8e     Total:3      MisBP:0   MisRate:0.00%    MPKI:0.00
PC:11c78     Total:6      MisBP:0   MisRate:0.00%    MPKI:0.00
PC:11c8c     Total:88      MisBP:0   MisRate:0.00%    MPKI:0.00
PC:25d94     Total:8      MisBP:0   MisRate:0.00%    MPKI:0.00
PC:25d98     Total:8      MisBP:0   MisRate:0.00%    MPKI:0.00
PC:11c92     Total:6      MisBP:0   MisRate:0.00%    MPKI:0.00
PC:11c94     Total:6      MisBP:0   MisRate:0.00%    MPKI:0.00
PC:25d9c     Total:8      MisBP:0   MisRate:0.00%    MPKI:0.00
PC:11c98     Total:6      MisBP:0   MisRate:0.00%    MPKI:0.00
PC:25da0     Total:8      MisBP:0   MisRate:0.00%    MPKI:0.00
PC:11c9c     Total:6      MisBP:0   MisRate:0.00%    MPKI:0.00
PC:25da4     Total:8      MisBP:0   MisRate:0.00%    MPKI:0.00
PC:25d6a     Total:3      MisBP:0   MisRate:0.00%    MPKI:0.00
PC:25d5e     Total:3      MisBP:0   MisRate:0.00%    MPKI:0.00
PC:11c58     Total:4      MisBP:0   MisRate:0.00%    MPKI:0.00
PC:25d60     Total:3      MisBP:0   MisRate:0.00%    MPKI:0.00
PC:11c5c     Total:4      MisBP:0   MisRate:0.00%    MPKI:0.00
PC:25d64     Total:3      MisBP:0   MisRate:0.00%    MPKI:0.00
PC:11c5e     Total:4      MisBP:0   MisRate:0.00%    MPKI:0.00
PC:25d66     Total:3      MisBP:0   MisRate:0.00%    MPKI:0.00
PC:11c60     Total:4      MisBP:0   MisRate:0.00%    MPKI:0.00
PC:25d68     Total:3      MisBP:0   MisRate:0.00%    MPKI:0.00
PC:11c62     Total:4      MisBP:0   MisRate:0.00%    MPKI:0.00
PC:11ca0     Total:6      MisBP:0   MisRate:0.00%    MPKI:0.00
PC:11c6a     Total:6      MisBP:0   MisRate:0.00%    MPKI:0.00
PC:25d72     Total:3      MisBP:0   MisRate:0.00%    MPKI:0.00
PC:11c6c     Total:6      MisBP:0   MisRate:0.00%    MPKI:0.00
PC:25d74     Total:3      MisBP:0   MisRate:0.00%    MPKI:0.00
PC:11c70     Total:6      MisBP:0   MisRate:0.00%    MPKI:0.00
PC:25d78     Total:3      MisBP:0   MisRate:0.00%    MPKI:0.00
PC:11c72     Total:6      MisBP:0   MisRate:0.00%    MPKI:0.00
PC:25d7a     Total:3      MisBP:0   MisRate:0.00%    MPKI:0.00
PC:11c74     Total:6      MisBP:0   MisRate:0.00%    MPKI:0.00
PC:25d7c     Total:3      MisBP:0   MisRate:0.00%    MPKI:0.00
PC:2b116     Total:1      MisBP:0   MisRate:0.00%    MPKI:0.00
PC:11fbe     Total:1      MisBP:0   MisRate:0.00%    MPKI:0.00
PC:11fc2     Total:16      MisBP:0   MisRate:0.00%    MPKI:0.00
PC:11fc6     Total:16      MisBP:0   MisRate:0.00%    MPKI:0.00
PC:16ccc     Total:94828      MisBP:0   MisRate:0.00%    MPKI:0.00
PC:2b110     Total:2      MisBP:0   MisRate:0.00%    MPKI:0.00
PC:11fca     Total:8      MisBP:0   MisRate:0.00%    MPKI:0.00
PC:16cd0     Total:94912      MisBP:0   MisRate:0.00%    MPKI:0.00
PC:2b114     Total:2      MisBP:0   MisRate:0.00%    MPKI:0.00
PC:11fcc     Total:8      MisBP:0   MisRate:0.00%    MPKI:0.00
PC:16cd2     Total:94906      MisBP:0   MisRate:0.00%    MPKI:0.00
PC:1e2ba     Total:6      MisBP:0   MisRate:0.00%    MPKI:0.00
PC:11fd0     Total:8      MisBP:0   MisRate:0.00%    MPKI:0.00
PC:11fd4     Total:8      MisBP:0   MisRate:0.00%    MPKI:0.00
PC:16cda     Total:91910      MisBP:0   MisRate:0.00%    MPKI:0.00
PC:2b11e     Total:1      MisBP:0   MisRate:0.00%    MPKI:0.00
PC:11fd8     Total:6      MisBP:0   MisRate:0.00%    MPKI:0.00
PC:2b122     Total:2      MisBP:0   MisRate:0.00%    MPKI:0.00
PC:11fdc     Total:6      MisBP:0   MisRate:0.00%    MPKI:0.00
PC:16ce2     Total:91780      MisBP:0   MisRate:0.00%    MPKI:0.00
PC:2b126     Total:1      MisBP:0   MisRate:0.00%    MPKI:0.00
PC:16ce6     Total:91753      MisBP:0   MisRate:0.00%    MPKI:0.00
PC:11cb2     Total:2      MisBP:0   MisRate:0.00%    MPKI:0.00
PC:25da8     Total:8      MisBP:0   MisRate:0.00%    MPKI:0.00
PC:11ca4     Total:6      MisBP:0   MisRate:0.00%    MPKI:0.00
PC:25dac     Total:8      MisBP:0   MisRate:0.00%    MPKI:0.00
PC:11ca8     Total:6      MisBP:0   MisRate:0.00%    MPKI:0.00
PC:25db0     Total:8      MisBP:0   MisRate:0.00%    MPKI:0.00
PC:11caa     Total:6      MisBP:0   MisRate:0.00%    MPKI:0.00
PC:11cac     Total:6      MisBP:0   MisRate:0.00%    MPKI:0.00
PC:25db4     Total:8      MisBP:0   MisRate:0.00%    MPKI:0.00
PC:11cae     Total:6      MisBP:0   MisRate:0.00%    MPKI:0.00
PC:25db6     Total:8      MisBP:0   MisRate:0.00%    MPKI:0.00
PC:11c56     Total:4      MisBP:0   MisRate:0.00%    MPKI:0.00
PC:11cb4     Total:2      MisBP:0   MisRate:0.00%    MPKI:0.00
PC:25dbc     Total:8      MisBP:0   MisRate:0.00%    MPKI:0.00
PC:11cb8     Total:131090      MisBP:0   MisRate:0.00%    MPKI:0.00
PC:25dc0     Total:6      MisBP:0   MisRate:0.00%    MPKI:0.00
PC:11cbc     Total:65546      MisBP:0   MisRate:0.00%    MPKI:0.00
PC:1e2a8     Total:6      MisBP:0   MisRate:0.00%    MPKI:0.00
PC:190c8     Total:10      MisBP:0   MisRate:0.00%    MPKI:0.00
PC:232ea     Total:1      MisBP:0   MisRate:0.00%    MPKI:0.00
PC:1e2ac     Total:6      MisBP:0   MisRate:0.00%    MPKI:0.00
PC:14098     Total:6      MisBP:0   MisRate:0.00%    MPKI:0.00
PC:16c10     Total:4      MisBP:0   MisRate:0.00%    MPKI:0.00
PC:16bfe     Total:3      MisBP:0   MisRate:0.00%    MPKI:0.00
PC:11bbe     Total:4      MisBP:0   MisRate:0.00%    MPKI:0.00
PC:11bc0     Total:1      MisBP:0   MisRate:0.00%    MPKI:0.00
PC:16c02     Total:3      MisBP:0   MisRate:0.00%    MPKI:0.00
PC:11bc2     Total:1      MisBP:0   MisRate:0.00%    MPKI:0.00
PC:16c04     Total:3      MisBP:0   MisRate:0.00%    MPKI:0.00
PC:11bc4     Total:1      MisBP:0   MisRate:0.00%    MPKI:0.00
PC:11bc8     Total:1      MisBP:0   MisRate:0.00%    MPKI:0.00
PC:16c0a     Total:4      MisBP:0   MisRate:0.00%    MPKI:0.00
PC:11bcc     Total:1      MisBP:0   MisRate:0.00%    MPKI:0.00
PC:11bce     Total:1      MisBP:0   MisRate:0.00%    MPKI:0.00
PC:11bbc     Total:5      MisBP:0   MisRate:0.00%    MPKI:0.00
PC:11bd0     Total:1      MisBP:0   MisRate:0.00%    MPKI:0.00
PC:16c12     Total:13      MisBP:0   MisRate:0.00%    MPKI:0.00
PC:11bd2     Total:1      MisBP:0   MisRate:0.00%    MPKI:0.00
PC:11bd6     Total:1      MisBP:0   MisRate:0.00%    MPKI:0.00
PC:16c18     Total:13      MisBP:0   MisRate:0.00%    MPKI:0.00
PC:11bda     Total:1      MisBP:0   MisRate:0.00%    MPKI:0.00
PC:16c1c     Total:13      MisBP:0   MisRate:0.00%    MPKI:0.00
PC:11bdc     Total:7688      MisBP:0   MisRate:0.00%    MPKI:0.00
PC:11be0     Total:7688      MisBP:0   MisRate:0.00%    MPKI:0.00
PC:16c22     Total:13      MisBP:0   MisRate:0.00%    MPKI:0.00
PC:16bea     Total:2      MisBP:0   MisRate:0.00%    MPKI:0.00
PC:11b96     Total:1      MisBP:0   MisRate:0.00%    MPKI:0.00
PC:11b9a     Total:1      MisBP:0   MisRate:0.00%    MPKI:0.00
PC:11b9c     Total:1      MisBP:0   MisRate:0.00%    MPKI:0.00
PC:11b9e     Total:1      MisBP:0   MisRate:0.00%    MPKI:0.00
PC:16be0     Total:12      MisBP:0   MisRate:0.00%    MPKI:0.00
PC:11ba0     Total:1      MisBP:0   MisRate:0.00%    MPKI:0.00
PC:11ba4     Total:2      MisBP:0   MisRate:0.00%    MPKI:0.00
PC:11ba6     Total:2      MisBP:0   MisRate:0.00%    MPKI:0.00
PC:16be8     Total:12      MisBP:0   MisRate:0.00%    MPKI:0.00
PC:11ba8     Total:2      MisBP:0   MisRate:0.00%    MPKI:0.00
PC:11be2     Total:7688      MisBP:0   MisRate:0.00%    MPKI:0.00
PC:11bac     Total:2      MisBP:0   MisRate:0.00%    MPKI:0.00
PC:16bee     Total:2      MisBP:0   MisRate:0.00%    MPKI:0.00
PC:11bae     Total:131106      MisBP:0   MisRate:0.00%    MPKI:0.00
PC:16bf0     Total:2      MisBP:0   MisRate:0.00%    MPKI:0.00
PC:11bb2     Total:65553      MisBP:0   MisRate:0.00%    MPKI:0.00
PC:16bf4     Total:2      MisBP:0   MisRate:0.00%    MPKI:0.00
PC:16bf6     Total:2      MisBP:0   MisRate:0.00%    MPKI:0.00
PC:11bb6     Total:5      MisBP:0   MisRate:0.00%    MPKI:0.00
PC:11bb8     Total:5      MisBP:0   MisRate:0.00%    MPKI:0.00
PC:16bfa     Total:2      MisBP:0   MisRate:0.00%    MPKI:0.00
PC:11c40     Total:7686      MisBP:0   MisRate:0.00%    MPKI:0.00
PC:11c24     Total:7687      MisBP:0   MisRate:0.00%    MPKI:0.00
PC:16c66     Total:7      MisBP:0   MisRate:0.00%    MPKI:0.00
PC:11c28     Total:7689      MisBP:0   MisRate:0.00%    MPKI:0.00
PC:11c2c     Total:7689      MisBP:0   MisRate:0.00%    MPKI:0.00
PC:11c30     Total:7689      MisBP:0   MisRate:0.00%    MPKI:0.00
PC:11c34     Total:15378      MisBP:0   MisRate:0.00%    MPKI:0.00
PC:11c38     Total:15376      MisBP:0   MisRate:0.00%    MPKI:0.00
PC:11c3c     Total:7687      MisBP:0   MisRate:0.00%    MPKI:0.00
PC:25d44     Total:3      MisBP:0   MisRate:0.00%    MPKI:0.00
PC:16c7e     Total:1132662      MisBP:0   MisRate:0.00%    MPKI:0.00
PC:16c62     Total:7      MisBP:0   MisRate:0.00%    MPKI:0.00
PC:25d48     Total:15      MisBP:0   MisRate:0.00%    MPKI:0.00
PC:11c44     Total:7687      MisBP:0   MisRate:0.00%    MPKI:0.00
PC:11c48     Total:7687      MisBP:0   MisRate:0.00%    MPKI:0.00
PC:25d50     Total:3      MisBP:0   MisRate:0.00%    MPKI:0.00
PC:11c4c     Total:7687      MisBP:0   MisRate:0.00%    MPKI:0.00
PC:25d54     Total:3      MisBP:0   MisRate:0.00%    MPKI:0.00
PC:25d58     Total:3      MisBP:0   MisRate:0.00%    MPKI:0.00
PC:11c52     Total:4      MisBP:0   MisRate:0.00%    MPKI:0.00
PC:11c54     Total:4      MisBP:0   MisRate:0.00%    MPKI:0.00
PC:25d5c     Total:3      MisBP:0   MisRate:0.00%    MPKI:0.00
PC:16c42     Total:11      MisBP:0   MisRate:0.00%    MPKI:0.00
PC:11be6     Total:7688      MisBP:0   MisRate:0.00%    MPKI:0.00
PC:11be8     Total:7687      MisBP:0   MisRate:0.00%    MPKI:0.00
PC:11bec     Total:7687      MisBP:0   MisRate:0.00%    MPKI:0.00
PC:11bf0     Total:7689      MisBP:0   MisRate:0.00%    MPKI:0.00
PC:16c32     Total:13      MisBP:0   MisRate:0.00%    MPKI:0.00
PC:11bf4     Total:7689      MisBP:0   MisRate:0.00%    MPKI:0.00
PC:11bf8     Total:7688      MisBP:0   MisRate:0.00%    MPKI:0.00
PC:11bfc     Total:7688      MisBP:0   MisRate:0.00%    MPKI:0.00
PC:16c3e     Total:13      MisBP:0   MisRate:0.00%    MPKI:0.00
PC:11c00     Total:7686      MisBP:0   MisRate:0.00%    MPKI:0.00
PC:140a6     Total:6      MisBP:0   MisRate:0.00%    MPKI:0.00
PC:11c04     Total:7686      MisBP:0   MisRate:0.00%    MPKI:0.00
PC:11c08     Total:7686      MisBP:0   MisRate:0.00%    MPKI:0.00
PC:11c0c     Total:7687      MisBP:0   MisRate:0.00%    MPKI:0.00
PC:16c4e     Total:17      MisBP:0   MisRate:0.00%    MPKI:0.00
PC:11c10     Total:7687      MisBP:0   MisRate:0.00%    MPKI:0.00
PC:11c14     Total:7687      MisBP:0   MisRate:0.00%    MPKI:0.00
PC:11c18     Total:7687      MisBP:0   MisRate:0.00%    MPKI:0.00
PC:16c5a     Total:7      MisBP:0   MisRate:0.00%    MPKI:0.00
PC:11c1c     Total:7687      MisBP:0   MisRate:0.00%    MPKI:0.00
PC:11c20     Total:7687      MisBP:0   MisRate:0.00%    MPKI:0.00
PC:24556     Total:4      MisBP:0   MisRate:0.00%    MPKI:0.00
PC:2955c     Total:1597      MisBP:0   MisRate:0.00%    MPKI:0.00
PC:29564     Total:1596      MisBP:0   MisRate:0.00%    MPKI:0.00
PC:2957c     Total:1596      MisBP:0   MisRate:0.00%    MPKI:0.00
PC:2453a     Total:4      MisBP:0   MisRate:0.00%    MPKI:0.00
PC:15144     Total:4      MisBP:0   MisRate:0.00%    MPKI:0.00
PC:29588     Total:1596      MisBP:0   MisRate:0.00%    MPKI:0.00
PC:15148     Total:4      MisBP:0   MisRate:0.00%    MPKI:0.00
PC:2958c     Total:1596      MisBP:0   MisRate:0.00%    MPKI:0.00
PC:2454a     Total:1      MisBP:0   MisRate:0.00%    MPKI:0.00
PC:15154     Total:4      MisBP:0   MisRate:0.00%    MPKI:0.00
PC:29598     Total:1596      MisBP:0   MisRate:0.00%    MPKI:0.00
PC:29558     Total:1597      MisBP:0   MisRate:0.00%    MPKI:0.00
PC:15158     Total:3      MisBP:0   MisRate:0.00%    MPKI:0.00
PC:2959c     Total:1596      MisBP:0   MisRate:0.00%    MPKI:0.00
PC:2455a     Total:4      MisBP:0   MisRate:0.00%    MPKI:0.00
PC:1518c     Total:3      MisBP:0   MisRate:0.00%    MPKI:0.00
PC:295d0     Total:1585      MisBP:0   MisRate:0.00%    MPKI:0.00
PC:2458e     Total:1      MisBP:0   MisRate:0.00%    MPKI:0.00
PC:295e4     Total:1581      MisBP:0   MisRate:0.00%    MPKI:0.00
PC:245a2     Total:5      MisBP:0   MisRate:0.00%    MPKI:0.00
PC:295f4     Total:1578      MisBP:0   MisRate:0.00%    MPKI:0.00
PC:245b2     Total:3      MisBP:0   MisRate:0.00%    MPKI:0.00
PC:29524     Total:1600      MisBP:0   MisRate:0.00%    MPKI:0.00
PC:3859e     Total:2      MisBP:0   MisRate:0.00%    MPKI:0.00
PC:15098     Total:114243      MisBP:0   MisRate:0.00%    MPKI:0.00
PC:294dc     Total:146      MisBP:0   MisRate:0.00%    MPKI:0.00
PC:385a2     Total:2      MisBP:0   MisRate:0.00%    MPKI:0.00
PC:150a0     Total:114230      MisBP:0   MisRate:0.00%    MPKI:0.00
PC:294e4     Total:146      MisBP:0   MisRate:0.00%    MPKI:0.00
PC:2951c     Total:1605      MisBP:0   MisRate:0.00%    MPKI:0.00
PC:150dc     Total:267001      MisBP:0   MisRate:0.00%    MPKI:0.00
PC:29520     Total:1600      MisBP:0   MisRate:0.00%    MPKI:0.00
PC:150e0     Total:266428      MisBP:0   MisRate:0.00%    MPKI:0.00
PC:151d4     Total:3      MisBP:0   MisRate:0.00%    MPKI:0.00
PC:29528     Total:1600      MisBP:0   MisRate:0.00%    MPKI:0.00
PC:385ee     Total:1      MisBP:0   MisRate:0.00%    MPKI:0.00
PC:2952c     Total:1600      MisBP:0   MisRate:0.00%    MPKI:0.00
PC:150f8     Total:221198      MisBP:0   MisRate:0.00%    MPKI:0.00
PC:2953c     Total:1600      MisBP:0   MisRate:0.00%    MPKI:0.00
PC:15100     Total:211652      MisBP:0   MisRate:0.00%    MPKI:0.00
PC:29544     Total:1598      MisBP:0   MisRate:0.00%    MPKI:0.00
PC:1510c     Total:211046      MisBP:0   MisRate:0.00%    MPKI:0.00
PC:29550     Total:1597      MisBP:0   MisRate:0.00%    MPKI:0.00
PC:29554     Total:1597      MisBP:0   MisRate:0.00%    MPKI:0.00
PC:296dc     Total:117      MisBP:0   MisRate:0.00%    MPKI:0.00
PC:29678     Total:119      MisBP:0   MisRate:0.00%    MPKI:0.00
PC:15250     Total:2      MisBP:0   MisRate:0.00%    MPKI:0.00
PC:29694     Total:117      MisBP:0   MisRate:0.00%    MPKI:0.00
PC:29698     Total:117      MisBP:0   MisRate:0.00%    MPKI:0.00
PC:15274     Total:13      MisBP:0   MisRate:0.00%    MPKI:0.00
PC:296b8     Total:117      MisBP:0   MisRate:0.00%    MPKI:0.00
PC:24676     Total:2      MisBP:0   MisRate:0.00%    MPKI:0.00
PC:15278     Total:13      MisBP:0   MisRate:0.00%    MPKI:0.00
PC:296bc     Total:117      MisBP:0   MisRate:0.00%    MPKI:0.00
PC:15298     Total:18      MisBP:0   MisRate:0.00%    MPKI:0.00
PC:29674     Total:119      MisBP:0   MisRate:0.00%    MPKI:0.00
PC:1529c     Total:18      MisBP:0   MisRate:0.00%    MPKI:0.00
PC:296e0     Total:117      MisBP:0   MisRate:0.00%    MPKI:0.00
PC:29700     Total:117      MisBP:0   MisRate:0.00%    MPKI:0.00
PC:152c0     Total:23      MisBP:0   MisRate:0.00%    MPKI:0.00
PC:29704     Total:117      MisBP:0   MisRate:0.00%    MPKI:0.00
PC:29724     Total:116      MisBP:0   MisRate:0.00%    MPKI:0.00
PC:152e4     Total:247      MisBP:0   MisRate:0.00%    MPKI:0.00
PC:29728     Total:116      MisBP:0   MisRate:0.00%    MPKI:0.00
PC:15304     Total:1188      MisBP:0   MisRate:0.00%    MPKI:0.00
PC:29748     Total:114      MisBP:0   MisRate:0.00%    MPKI:0.00
PC:15218     Total:3      MisBP:0   MisRate:0.00%    MPKI:0.00
PC:29618     Total:1570      MisBP:0   MisRate:0.00%    MPKI:0.00
PC:29640     Total:1570      MisBP:0   MisRate:0.00%    MPKI:0.00
PC:29648     Total:1570      MisBP:0   MisRate:0.00%    MPKI:0.00
PC:15208     Total:3      MisBP:0   MisRate:0.00%    MPKI:0.00
PC:2964c     Total:1570      MisBP:0   MisRate:0.00%    MPKI:0.00
PC:1520c     Total:3      MisBP:0   MisRate:0.00%    MPKI:0.00
PC:29650     Total:1570      MisBP:0   MisRate:0.00%    MPKI:0.00
PC:15210     Total:3      MisBP:0   MisRate:0.00%    MPKI:0.00
PC:15214     Total:3      MisBP:0   MisRate:0.00%    MPKI:0.00
PC:29658     Total:119      MisBP:0   MisRate:0.00%    MPKI:0.00
PC:294d8     Total:146      MisBP:0   MisRate:0.00%    MPKI:0.00
PC:2965c     Total:119      MisBP:0   MisRate:0.00%    MPKI:0.00
PC:1521c     Total:3      MisBP:0   MisRate:0.00%    MPKI:0.00
PC:29660     Total:119      MisBP:0   MisRate:0.00%    MPKI:0.00
PC:15220     Total:3      MisBP:0   MisRate:0.00%    MPKI:0.00
PC:29664     Total:119      MisBP:0   MisRate:0.00%    MPKI:0.00
PC:15224     Total:3      MisBP:0   MisRate:0.00%    MPKI:0.00
PC:29668     Total:119      MisBP:0   MisRate:0.00%    MPKI:0.00
PC:15228     Total:3      MisBP:0   MisRate:0.00%    MPKI:0.00
PC:2966c     Total:119      MisBP:0   MisRate:0.00%    MPKI:0.00
PC:29670     Total:119      MisBP:0   MisRate:0.00%    MPKI:0.00
PC:1794e     Total:8      MisBP:0   MisRate:0.00%    MPKI:0.00
PC:15e6a     Total:18528      MisBP:0   MisRate:0.00%    MPKI:0.00
PC:15e70     Total:18519      MisBP:0   MisRate:0.00%    MPKI:0.00
PC:15e7a     Total:18503      MisBP:0   MisRate:0.00%    MPKI:0.00
PC:11046     Total:250      MisBP:0   MisRate:0.00%    MPKI:0.00
PC:12900     Total:7      MisBP:0   MisRate:0.00%    MPKI:0.00
PC:17942     Total:16      MisBP:0   MisRate:0.00%    MPKI:0.00
PC:12904     Total:3      MisBP:0   MisRate:0.00%    MPKI:0.00
PC:12906     Total:3      MisBP:0   MisRate:0.00%    MPKI:0.00
PC:17948     Total:8      MisBP:0   MisRate:0.00%    MPKI:0.00
PC:12908     Total:3      MisBP:0   MisRate:0.00%    MPKI:0.00
PC:1290c     Total:3      MisBP:0   MisRate:0.00%    MPKI:0.00
PC:15e3c     Total:18595      MisBP:0   MisRate:0.00%    MPKI:0.00
PC:12910     Total:3      MisBP:0   MisRate:0.00%    MPKI:0.00
PC:17952     Total:8      MisBP:0   MisRate:0.00%    MPKI:0.00
PC:12914     Total:3      MisBP:0   MisRate:0.00%    MPKI:0.00
PC:12916     Total:3      MisBP:0   MisRate:0.00%    MPKI:0.00
PC:17958     Total:8      MisBP:0   MisRate:0.00%    MPKI:0.00
PC:12918     Total:3      MisBP:0   MisRate:0.00%    MPKI:0.00
PC:1795a     Total:8      MisBP:0   MisRate:0.00%    MPKI:0.00
PC:1291a     Total:6      MisBP:0   MisRate:0.00%    MPKI:0.00
PC:1795c     Total:8      MisBP:0   MisRate:0.00%    MPKI:0.00
PC:1291e     Total:3      MisBP:0   MisRate:0.00%    MPKI:0.00
PC:15dfe     Total:18469      MisBP:0   MisRate:0.00%    MPKI:0.00
PC:15db6     Total:18378      MisBP:0   MisRate:0.00%    MPKI:0.00
PC:15dc0     Total:18295      MisBP:0   MisRate:0.00%    MPKI:0.00
PC:15dca     Total:18323      MisBP:0   MisRate:0.00%    MPKI:0.00
PC:15dd4     Total:18334      MisBP:0   MisRate:0.00%    MPKI:0.00
PC:15dde     Total:18334      MisBP:0   MisRate:0.00%    MPKI:0.00
PC:15de2     Total:18366      MisBP:0   MisRate:0.00%    MPKI:0.00
PC:15de8     Total:18389      MisBP:0   MisRate:0.00%    MPKI:0.00
PC:15df2     Total:18464      MisBP:0   MisRate:0.00%    MPKI:0.00
PC:15df6     Total:18463      MisBP:0   MisRate:0.00%    MPKI:0.00
PC:38fc4     Total:1      MisBP:0   MisRate:0.00%    MPKI:0.00
PC:17960     Total:6      MisBP:0   MisRate:0.00%    MPKI:0.00
PC:38fcc     Total:1      MisBP:0   MisRate:0.00%    MPKI:0.00
PC:15e02     Total:18412      MisBP:0   MisRate:0.00%    MPKI:0.00
PC:15e08     Total:18569      MisBP:0   MisRate:0.00%    MPKI:0.00
PC:38fd6     Total:1      MisBP:0   MisRate:0.00%    MPKI:0.00
PC:15e0e     Total:18559      MisBP:0   MisRate:0.00%    MPKI:0.00
PC:15e12     Total:18588      MisBP:0   MisRate:0.00%    MPKI:0.00
PC:15e24     Total:18577      MisBP:0   MisRate:0.00%    MPKI:0.00
PC:38ff2     Total:1      MisBP:0   MisRate:0.00%    MPKI:0.00
PC:15e38     Total:18564      MisBP:0   MisRate:0.00%    MPKI:0.00
PC:362e2     Total:4      MisBP:0   MisRate:0.00%    MPKI:0.00
PC:128ec     Total:7      MisBP:0   MisRate:0.00%    MPKI:0.00
PC:17920     Total:15      MisBP:0   MisRate:0.00%    MPKI:0.00
PC:128e0     Total:7      MisBP:0   MisRate:0.00%    MPKI:0.00
PC:17922     Total:15      MisBP:0   MisRate:0.00%    MPKI:0.00
PC:128e4     Total:7      MisBP:0   MisRate:0.00%    MPKI:0.00
PC:17926     Total:15      MisBP:0   MisRate:0.00%    MPKI:0.00
PC:128e6     Total:7      MisBP:0   MisRate:0.00%    MPKI:0.00
PC:128e8     Total:7      MisBP:0   MisRate:0.00%    MPKI:0.00
PC:1792a     Total:15      MisBP:0   MisRate:0.00%    MPKI:0.00
PC:128ea     Total:7      MisBP:0   MisRate:0.00%    MPKI:0.00
[...]
PC:1308a     Total:1247      MisBP:5   MisRate:0.40%    MPKI:0.00
PC:125f6     Total:264186      MisBP:5   MisRate:0.00%    MPKI:0.00
PC:177dc     Total:11      MisBP:5   MisRate:45.45%    MPKI:0.00
PC:18d92     Total:3417      MisBP:5   MisRate:0.15%    MPKI:0.00
PC:179b4     Total:13      MisBP:5   MisRate:38.46%    MPKI:0.00
PC:11cc6     Total:65544      MisBP:5   MisRate:0.01%    MPKI:0.00
PC:16efe     Total:29      MisBP:5   MisRate:17.24%    MPKI:0.00
PC:11c90     Total:43      MisBP:5   MisRate:11.63%    MPKI:0.00
PC:186fe     Total:339      MisBP:5   MisRate:1.47%    MPKI:0.00
PC:17174     Total:11      MisBP:6   MisRate:54.55%    MPKI:0.00
PC:17aea     Total:15      MisBP:6   MisRate:40.00%    MPKI:0.00
PC:14700     Total:30      MisBP:6   MisRate:20.00%    MPKI:0.00
PC:16606     Total:10219      MisBP:6   MisRate:0.06%    MPKI:0.00
PC:14bde     Total:256      MisBP:6   MisRate:2.34%    MPKI:0.00
PC:17cc8     Total:18      MisBP:6   MisRate:33.33%    MPKI:0.00
PC:178e0     Total:11      MisBP:6   MisRate:54.55%    MPKI:0.00
PC:146c2     Total:84      MisBP:6   MisRate:7.14%    MPKI:0.00
PC:1208c     Total:385      MisBP:6   MisRate:1.56%    MPKI:0.00
PC:11d58     Total:7686      MisBP:6   MisRate:0.08%    MPKI:0.00
PC:1787a     Total:13      MisBP:6   MisRate:46.15%    MPKI:0.00
PC:1730e     Total:550      MisBP:6   MisRate:1.09%    MPKI:0.00
PC:1511c     Total:858605      MisBP:6   MisRate:0.00%    MPKI:0.00
PC:166e8     Total:117      MisBP:6   MisRate:5.13%    MPKI:0.00
PC:16760     Total:8643      MisBP:6   MisRate:0.07%    MPKI:0.00
PC:20706     Total:48      MisBP:6   MisRate:12.50%    MPKI:0.00
PC:18de2     Total:99      MisBP:6   MisRate:6.06%    MPKI:0.00
PC:1874e     Total:61      MisBP:6   MisRate:9.84%    MPKI:0.00
PC:14168     Total:48      MisBP:7   MisRate:14.58%    MPKI:0.00
PC:172d6     Total:57      MisBP:7   MisRate:12.28%    MPKI:0.00
PC:176fe     Total:14      MisBP:7   MisRate:50.00%    MPKI:0.00
PC:17946     Total:16      MisBP:7   MisRate:43.75%    MPKI:0.00
PC:167fa     Total:31      MisBP:7   MisRate:22.58%    MPKI:0.00
PC:173a4     Total:63      MisBP:7   MisRate:11.11%    MPKI:0.00
PC:152aa     Total:16      MisBP:8   MisRate:50.00%    MPKI:0.00
PC:18a5e     Total:9      MisBP:8   MisRate:88.89%    MPKI:0.00
PC:146b6     Total:243      MisBP:8   MisRate:3.29%    MPKI:0.00
PC:17490     Total:69      MisBP:8   MisRate:11.59%    MPKI:0.00
PC:16854     Total:8740      MisBP:8   MisRate:0.09%    MPKI:0.00
PC:16768     Total:15      MisBP:8   MisRate:53.33%    MPKI:0.00
PC:12efc     Total:18      MisBP:8   MisRate:44.44%    MPKI:0.00
PC:120e6     Total:447      MisBP:9   MisRate:2.01%    MPKI:0.00
PC:17320     Total:64      MisBP:9   MisRate:14.06%    MPKI:0.00
PC:17658     Total:83122      MisBP:9   MisRate:0.01%    MPKI:0.00
PC:172fc     Total:54      MisBP:9   MisRate:16.67%    MPKI:0.00
PC:13346     Total:35      MisBP:9   MisRate:25.71%    MPKI:0.00
PC:16f30     Total:552      MisBP:10   MisRate:1.81%    MPKI:0.00
PC:15576     Total:18028      MisBP:10   MisRate:0.06%    MPKI:0.00
PC:153a8     Total:181      MisBP:10   MisRate:5.52%    MPKI:0.00
PC:18fd0     Total:56      MisBP:10   MisRate:17.86%    MPKI:0.00
PC:13592     Total:36049      MisBP:11   MisRate:0.03%    MPKI:0.00
PC:293c4     Total:206      MisBP:11   MisRate:5.34%    MPKI:0.00
PC:187a2     Total:18026      MisBP:11   MisRate:0.06%    MPKI:0.00
PC:166a8     Total:69      MisBP:11   MisRate:15.94%    MPKI:0.00
PC:186d0     Total:834      MisBP:11   MisRate:1.32%    MPKI:0.00
PC:1353e     Total:166      MisBP:11   MisRate:6.63%    MPKI:0.00
PC:154fa     Total:65      MisBP:12   MisRate:18.46%    MPKI:0.00
PC:13614     Total:31      MisBP:12   MisRate:38.71%    MPKI:0.00
PC:153cc     Total:52      MisBP:12   MisRate:23.08%    MPKI:0.00
PC:1358e     Total:36054      MisBP:12   MisRate:0.03%    MPKI:0.00
PC:1593e     Total:18087      MisBP:12   MisRate:0.07%    MPKI:0.00
PC:1530e     Total:1188      MisBP:12   MisRate:1.01%    MPKI:0.00
PC:12180     Total:621      MisBP:12   MisRate:1.93%    MPKI:0.00
PC:29348     Total:223      MisBP:13   MisRate:5.83%    MPKI:0.00
PC:18a36     Total:500135      MisBP:13   MisRate:0.00%    MPKI:0.00
PC:12d9c     Total:1306      MisBP:14   MisRate:1.07%    MPKI:0.00
PC:1360c     Total:182      MisBP:14   MisRate:7.69%    MPKI:0.00
PC:130b6     Total:31907      MisBP:14   MisRate:0.04%    MPKI:0.00
PC:151e8     Total:1503      MisBP:15   MisRate:1.00%    MPKI:0.00
PC:18f7c     Total:224      MisBP:15   MisRate:6.70%    MPKI:0.00
PC:15444     Total:209      MisBP:15   MisRate:7.18%    MPKI:0.00
PC:1697a     Total:873      MisBP:16   MisRate:1.83%    MPKI:0.00
PC:167f2     Total:2777      MisBP:17   MisRate:0.61%    MPKI:0.00
PC:18c2e     Total:11346      MisBP:17   MisRate:0.15%    MPKI:0.00
PC:16f68     Total:69      MisBP:17   MisRate:24.64%    MPKI:0.00
PC:16ed0     Total:1542      MisBP:17   MisRate:1.10%    MPKI:0.00
PC:16644     Total:1309      MisBP:18   MisRate:1.38%    MPKI:0.00
PC:293d0     Total:135      MisBP:18   MisRate:13.33%    MPKI:0.00
PC:13668     Total:504      MisBP:18   MisRate:3.57%    MPKI:0.00
PC:11e2a     Total:37      MisBP:19   MisRate:51.35%    MPKI:0.00
PC:29354     Total:95      MisBP:19   MisRate:20.00%    MPKI:0.00
PC:29654     Total:1570      MisBP:20   MisRate:1.27%    MPKI:0.00
PC:146b0     Total:364      MisBP:20   MisRate:5.49%    MPKI:0.00
PC:18e8c     Total:168      MisBP:20   MisRate:11.90%    MPKI:0.00
PC:18f5a     Total:221      MisBP:22   MisRate:9.95%    MPKI:0.00
PC:12ea0     Total:107175      MisBP:22   MisRate:0.02%    MPKI:0.00
PC:1227c     Total:49269      MisBP:22   MisRate:0.04%    MPKI:0.00
PC:154cc     Total:163      MisBP:23   MisRate:14.11%    MPKI:0.00
PC:10158     Total:789      MisBP:23   MisRate:2.92%    MPKI:0.00
PC:15292     Total:338      MisBP:24   MisRate:7.10%    MPKI:0.00
PC:18f04     Total:1626      MisBP:24   MisRate:1.48%    MPKI:0.00
PC:14708     Total:30      MisBP:25   MisRate:83.33%    MPKI:0.00
PC:16cc0     Total:94793      MisBP:25   MisRate:0.03%    MPKI:0.00
PC:166c4     Total:113      MisBP:27   MisRate:23.89%    MPKI:0.00
PC:12140     Total:370      MisBP:28   MisRate:7.57%    MPKI:0.00
PC:12182     Total:50      MisBP:28   MisRate:56.00%    MPKI:0.00
PC:111de     Total:160      MisBP:28   MisRate:17.50%    MPKI:0.00
PC:29818     Total:84      MisBP:28   MisRate:33.33%    MPKI:0.00
PC:1872a     Total:15549      MisBP:28   MisRate:0.18%    MPKI:0.00
PC:13672     Total:204      MisBP:29   MisRate:14.22%    MPKI:0.00
PC:12224     Total:364      MisBP:30   MisRate:8.24%    MPKI:0.00
PC:146f0     Total:221      MisBP:30   MisRate:13.57%    MPKI:0.00
PC:153c2     Total:5208      MisBP:31   MisRate:0.60%    MPKI:0.00
PC:1848c     Total:338452      MisBP:31   MisRate:0.01%    MPKI:0.00
PC:15302     Total:1410      MisBP:32   MisRate:2.27%    MPKI:0.00
PC:18f16     Total:458      MisBP:32   MisRate:6.99%    MPKI:0.00
PC:10f9c     Total:294      MisBP:32   MisRate:10.88%    MPKI:0.00
PC:16aa0     Total:56      MisBP:32   MisRate:57.14%    MPKI:0.00
PC:11e26     Total:2222      MisBP:32   MisRate:1.44%    MPKI:0.00
PC:166e2     Total:551      MisBP:32   MisRate:5.81%    MPKI:0.00
PC:18ed0     Total:20676      MisBP:33   MisRate:0.16%    MPKI:0.00
PC:18f26     Total:516      MisBP:35   MisRate:6.78%    MPKI:0.00
PC:135c6     Total:114583      MisBP:36   MisRate:0.03%    MPKI:0.00
PC:174ce     Total:613591      MisBP:37   MisRate:0.01%    MPKI:0.00
PC:18e28     Total:1436      MisBP:37   MisRate:2.58%    MPKI:0.00
PC:10ecc     Total:76      MisBP:40   MisRate:52.63%    MPKI:0.00
PC:174bc     Total:507632      MisBP:40   MisRate:0.01%    MPKI:0.00
PC:18ee6     Total:562      MisBP:41   MisRate:7.30%    MPKI:0.00
PC:17398     Total:565      MisBP:42   MisRate:7.43%    MPKI:0.00
PC:16e70     Total:3813      MisBP:46   MisRate:1.21%    MPKI:0.00
PC:14bb6     Total:642      MisBP:47   MisRate:7.32%    MPKI:0.00
PC:18ed6     Total:171      MisBP:47   MisRate:27.49%    MPKI:0.00
PC:16f58     Total:942      MisBP:48   MisRate:5.10%    MPKI:0.00
PC:121dc     Total:486      MisBP:48   MisRate:9.88%    MPKI:0.00
PC:166d4     Total:581      MisBP:49   MisRate:8.43%    MPKI:0.00
PC:1737a     Total:590      MisBP:50   MisRate:8.47%    MPKI:0.00
PC:11f7a     Total:48817      MisBP:51   MisRate:0.10%    MPKI:0.00
PC:11dfc     Total:1615      MisBP:51   MisRate:3.16%    MPKI:0.00
PC:16692     Total:1158      MisBP:52   MisRate:4.49%    MPKI:0.00
PC:18e84     Total:15504      MisBP:53   MisRate:0.34%    MPKI:0.00
PC:1104e     Total:250      MisBP:53   MisRate:21.20%    MPKI:0.00
PC:175c0     Total:211912      MisBP:54   MisRate:0.03%    MPKI:0.00
PC:146a4     Total:366      MisBP:56   MisRate:15.30%    MPKI:0.00
PC:1738c     Total:542      MisBP:56   MisRate:10.33%    MPKI:0.00
PC:186bc     Total:386      MisBP:59   MisRate:15.28%    MPKI:0.00
PC:173bc     Total:647      MisBP:64   MisRate:9.89%    MPKI:0.00
PC:1867e     Total:563      MisBP:68   MisRate:12.08%    MPKI:0.00
PC:1668c     Total:1155      MisBP:71   MisRate:6.15%    MPKI:0.00
PC:18dc0     Total:8035      MisBP:73   MisRate:0.91%    MPKI:0.00
PC:1359a     Total:36039      MisBP:78   MisRate:0.22%    MPKI:0.00
PC:18c4e     Total:547      MisBP:78   MisRate:14.26%    MPKI:0.00
PC:18644     Total:90790      MisBP:79   MisRate:0.09%    MPKI:0.00
PC:29804     Total:5164      MisBP:81   MisRate:1.57%    MPKI:0.00
PC:18bf8     Total:12367      MisBP:83   MisRate:0.67%    MPKI:0.00
PC:18b64     Total:11657      MisBP:83   MisRate:0.71%    MPKI:0.00
PC:18ca4     Total:9777      MisBP:87   MisRate:0.89%    MPKI:0.00
PC:18de0     Total:8688      MisBP:87   MisRate:1.00%    MPKI:0.00
PC:29454     Total:423      MisBP:88   MisRate:20.80%    MPKI:0.00
PC:146a6     Total:365      MisBP:89   MisRate:24.38%    MPKI:0.00
PC:13bf6     Total:632786      MisBP:91   MisRate:0.01%    MPKI:0.00
PC:18e16     Total:8658      MisBP:110   MisRate:1.27%    MPKI:0.00
PC:1221c     Total:336141      MisBP:121   MisRate:0.04%    MPKI:0.00
PC:167cc     Total:752      MisBP:126   MisRate:16.76%    MPKI:0.00
PC:18cc4     Total:372      MisBP:131   MisRate:35.22%    MPKI:0.00
PC:17b80     Total:22603      MisBP:134   MisRate:0.59%    MPKI:0.00
PC:16dce     Total:1357      MisBP:154   MisRate:11.35%    MPKI:0.00
PC:13bd0     Total:614363      MisBP:155   MisRate:0.03%    MPKI:0.00
PC:1211e     Total:296262      MisBP:162   MisRate:0.05%    MPKI:0.00
PC:11aee     Total:6485      MisBP:162   MisRate:2.50%    MPKI:0.00
PC:15440     Total:1251      MisBP:182   MisRate:14.55%    MPKI:0.00
PC:13086     Total:31478      MisBP:188   MisRate:0.60%    MPKI:0.00
PC:12d8a     Total:2542      MisBP:198   MisRate:7.79%    MPKI:0.00
PC:11ac4     Total:12082      MisBP:273   MisRate:2.26%    MPKI:0.00
PC:12178     Total:339807      MisBP:296   MisRate:0.09%    MPKI:0.00
PC:11ada     Total:9043      MisBP:304   MisRate:3.36%    MPKI:0.00
PC:121ae     Total:75837      MisBP:316   MisRate:0.42%    MPKI:0.00
PC:18674     Total:9583      MisBP:319   MisRate:3.33%    MPKI:0.00
PC:16de0     Total:1305      MisBP:325   MisRate:24.90%    MPKI:0.00
PC:11e60     Total:91106      MisBP:328   MisRate:0.36%    MPKI:0.00
PC:1207e     Total:91945      MisBP:335   MisRate:0.36%    MPKI:0.00
PC:16e3e     Total:4939      MisBP:337   MisRate:6.82%    MPKI:0.00
PC:18cd8     Total:45773      MisBP:343   MisRate:0.75%    MPKI:0.00
PC:167e4     Total:2740      MisBP:344   MisRate:12.55%    MPKI:0.00
PC:120ce     Total:73071      MisBP:350   MisRate:0.48%    MPKI:0.00
PC:18c62     Total:45843      MisBP:359   MisRate:0.78%    MPKI:0.00
PC:167b8     Total:2621      MisBP:359   MisRate:13.70%    MPKI:0.00
PC:11e18     Total:3435      MisBP:396   MisRate:11.53%    MPKI:0.00
PC:18d84     Total:3853      MisBP:416   MisRate:10.80%    MPKI:0.00
PC:11ae6     Total:8083      MisBP:475   MisRate:5.88%    MPKI:0.00
PC:11e7e     Total:40981      MisBP:579   MisRate:1.41%    MPKI:0.00
PC:18cfe     Total:42995      MisBP:663   MisRate:1.54%    MPKI:0.00
PC:11aae     Total:18879      MisBP:723   MisRate:3.83%    MPKI:0.00
PC:11ad0     Total:11622      MisBP:833   MisRate:7.17%    MPKI:0.00
PC:16e50     Total:4411      MisBP:923   MisRate:20.92%    MPKI:0.00
PC:130c2     Total:31790      MisBP:1016   MisRate:3.20%    MPKI:0.00
PC:13efe     Total:9873      MisBP:1065   MisRate:10.79%    MPKI:0.00
PC:18bce     Total:12769      MisBP:1130   MisRate:8.85%    MPKI:0.00
PC:11aba     Total:15796      MisBP:1196   MisRate:7.57%    MPKI:0.00
PC:123d8     Total:28756      MisBP:1251   MisRate:4.35%    MPKI:0.00
PC:11a98     Total:29220      MisBP:1296   MisRate:4.44%    MPKI:0.00
PC:17084     Total:59664      MisBP:1369   MisRate:2.29%    MPKI:0.00
PC:18b5a     Total:11184      MisBP:1509   MisRate:13.49%    MPKI:0.00
PC:18d68     Total:10321      MisBP:1639   MisRate:15.88%    MPKI:0.01
PC:11aa4     Total:22414      MisBP:1757   MisRate:7.84%    MPKI:0.01
PC:12476     Total:11023      MisBP:1852   MisRate:16.80%    MPKI:0.01
PC:18c88     Total:41216      MisBP:1913   MisRate:4.64%    MPKI:0.01
PC:16740     Total:7708      MisBP:1960   MisRate:25.43%    MPKI:0.01
PC:12430     Total:9749      MisBP:1969   MisRate:20.20%    MPKI:0.01
PC:16752     Total:9814      MisBP:1993   MisRate:20.31%    MPKI:0.01
PC:165e6     Total:9515      MisBP:2074   MisRate:21.80%    MPKI:0.01
PC:14a5a     Total:248669      MisBP:2155   MisRate:0.87%    MPKI:0.01
PC:11f64     Total:18175      MisBP:2192   MisRate:12.06%    MPKI:0.01
PC:184f8     Total:1517082      MisBP:2195   MisRate:0.14%    MPKI:0.01
PC:123f8     Total:10847      MisBP:2262   MisRate:20.85%    MPKI:0.01
PC:17b64     Total:33785      MisBP:2346   MisRate:6.94%    MPKI:0.01
PC:11a82     Total:51976      MisBP:2419   MisRate:4.65%    MPKI:0.01
PC:165f8     Total:28480      MisBP:2447   MisRate:8.59%    MPKI:0.01
PC:11a8e     Total:35976      MisBP:2949   MisRate:8.20%    MPKI:0.01
PC:11f08     Total:21722      MisBP:3162   MisRate:14.56%    MPKI:0.01
PC:17584     Total:650410      MisBP:3180   MisRate:0.49%    MPKI:0.01
PC:17632     Total:373112      MisBP:3225   MisRate:0.86%    MPKI:0.01
PC:124aa     Total:12505      MisBP:3389   MisRate:27.10%    MPKI:0.01
PC:18c5a     Total:39023      MisBP:3643   MisRate:9.34%    MPKI:0.01
PC:18782     Total:14262      MisBP:3816   MisRate:26.76%    MPKI:0.01
PC:11a6c     Total:84136      MisBP:4127   MisRate:4.91%    MPKI:0.01
PC:11e6a     Total:91012      MisBP:4287   MisRate:4.71%    MPKI:0.01
PC:18bec     Total:55711      MisBP:4451   MisRate:7.99%    MPKI:0.01
PC:12242     Total:26855      MisBP:4458   MisRate:16.60%    MPKI:0.01
PC:18cd0     Total:42145      MisBP:4857   MisRate:11.52%    MPKI:0.02
PC:13eb0     Total:30208      MisBP:4934   MisRate:16.33%    MPKI:0.02
PC:11a78     Total:60072      MisBP:4975   MisRate:8.28%    MPKI:0.02
PC:185d8     Total:63927      MisBP:4998   MisRate:7.82%    MPKI:0.02
PC:18796     Total:56707      MisBP:5815   MisRate:10.25%    MPKI:0.02
PC:12418     Total:155641      MisBP:5837   MisRate:3.75%    MPKI:0.02
PC:18dd0     Total:196151      MisBP:5858   MisRate:2.99%    MPKI:0.02
PC:1759c     Total:571615      MisBP:6111   MisRate:1.07%    MPKI:0.02
PC:12030     Total:710873      MisBP:6729   MisRate:0.95%    MPKI:0.02
PC:135aa     Total:110895      MisBP:6765   MisRate:6.10%    MPKI:0.02
PC:11a5e     Total:96328      MisBP:6980   MisRate:7.25%    MPKI:0.02
PC:12454     Total:125930      MisBP:7565   MisRate:6.01%    MPKI:0.02
PC:11a4a     Total:137916      MisBP:7877   MisRate:5.71%    MPKI:0.03
PC:11ec8     Total:41629      MisBP:8124   MisRate:19.52%    MPKI:0.03
PC:17b76     Total:30898      MisBP:8335   MisRate:26.98%    MPKI:0.03
PC:123ba     Total:154117      MisBP:8557   MisRate:5.55%    MPKI:0.03
PC:1234a     Total:206631      MisBP:9813   MisRate:4.75%    MPKI:0.03
PC:11a3a     Total:160030      MisBP:9815   MisRate:6.13%    MPKI:0.03
PC:122f2     Total:238469      MisBP:10182   MisRate:4.27%    MPKI:0.03
PC:11a20     Total:190641      MisBP:11400   MisRate:5.98%    MPKI:0.04
PC:11a28     Total:174468      MisBP:11464   MisRate:6.57%    MPKI:0.04
PC:11f5c     Total:1404930      MisBP:12416   MisRate:0.88%    MPKI:0.04
PC:1236c     Total:255386      MisBP:12848   MisRate:5.03%    MPKI:0.04
PC:123c4     Total:33355      MisBP:13532   MisRate:40.57%    MPKI:0.04
PC:150d8     Total:106591      MisBP:13627   MisRate:12.78%    MPKI:0.04
PC:122be     Total:229886      MisBP:15062   MisRate:6.55%    MPKI:0.05
PC:12314     Total:280978      MisBP:15108   MisRate:5.38%    MPKI:0.05
PC:11a04     Total:238294      MisBP:16269   MisRate:6.83%    MPKI:0.05
PC:12102     Total:283629      MisBP:17009   MisRate:6.00%    MPKI:0.05
PC:1546e     Total:208993      MisBP:17998   MisRate:8.61%    MPKI:0.06
PC:15402     Total:234396      MisBP:18061   MisRate:7.71%    MPKI:0.06
PC:1215e     Total:329283      MisBP:19715   MisRate:5.99%    MPKI:0.06
PC:11a0c     Total:216438      MisBP:22480   MisRate:10.39%    MPKI:0.07
PC:119fc     Total:287399      MisBP:22740   MisRate:7.91%    MPKI:0.07
PC:12250     Total:162038      MisBP:24678   MisRate:15.23%    MPKI:0.08
PC:119f4     Total:328754      MisBP:26076   MisRate:7.93%    MPKI:0.08
PC:13bca     Total:622049      MisBP:27133   MisRate:4.36%    MPKI:0.09
PC:119e4     Total:446317      MisBP:28220   MisRate:6.32%    MPKI:0.09
PC:150e2     Total:266362      MisBP:32697   MisRate:12.28%    MPKI:0.11
PC:1849a     Total:326883      MisBP:35405   MisRate:10.83%    MPKI:0.11
PC:18628     Total:146480      MisBP:40844   MisRate:27.88%    MPKI:0.13
PC:1508e     Total:247684      MisBP:43609   MisRate:17.61%    MPKI:0.14
PC:119dc     Total:525436      MisBP:43878   MisRate:8.35%    MPKI:0.14
PC:1754e     Total:484484      MisBP:44759   MisRate:9.24%    MPKI:0.14
PC:17690     Total:423083      MisBP:47333   MisRate:11.19%    MPKI:0.15
PC:185f2     Total:1120848      MisBP:48284   MisRate:4.31%    MPKI:0.16
PC:12014     Total:431362      MisBP:48795   MisRate:11.31%    MPKI:0.16
PC:17622     Total:345534      MisBP:49642   MisRate:14.37%    MPKI:0.16
PC:12042     Total:501025      MisBP:49913   MisRate:9.96%    MPKI:0.16
PC:17500     Total:422264      MisBP:49966   MisRate:11.83%    MPKI:0.16
PC:170ba     Total:783906      MisBP:51548   MisRate:6.58%    MPKI:0.17
PC:174e8     Total:475843      MisBP:51877   MisRate:10.90%    MPKI:0.17
PC:119ec     Total:393631      MisBP:52608   MisRate:13.36%    MPKI:0.17
PC:119d4     Total:603596      MisBP:61270   MisRate:10.15%    MPKI:0.20
PC:184f2     Total:1592822      MisBP:62292   MisRate:3.91%    MPKI:0.20
PC:174d4     Total:599521      MisBP:62471   MisRate:10.42%    MPKI:0.20
PC:1753e     Total:416081      MisBP:72799   MisRate:17.50%    MPKI:0.23
PC:1238c     Total:340951      MisBP:73048   MisRate:21.42%    MPKI:0.24
PC:11f40     Total:1305222      MisBP:77538   MisRate:5.94%    MPKI:0.25
PC:12334     Total:398127      MisBP:79807   MisRate:20.05%    MPKI:0.26
PC:119cc     Total:774357      MisBP:81477   MisRate:10.52%    MPKI:0.26
PC:122dc     Total:353518      MisBP:83654   MisRate:23.66%    MPKI:0.27
PC:12040     Total:772601      MisBP:87941   MisRate:11.38%    MPKI:0.28
PC:119b6     Total:1140580      MisBP:89160   MisRate:7.82%    MPKI:0.29
PC:1508c     Total:793570      MisBP:94753   MisRate:11.94%    MPKI:0.31
PC:16cf6     Total:1256504      MisBP:94931   MisRate:7.56%    MPKI:0.31
PC:14a2e     Total:484595      MisBP:103450   MisRate:21.35%    MPKI:0.33
PC:175f8     Total:718260      MisBP:110700   MisRate:15.41%    MPKI:0.36
PC:150f4     Total:4080454      MisBP:115152   MisRate:2.82%    MPKI:0.37
PC:17066     Total:1009017      MisBP:156661   MisRate:15.53%    MPKI:0.51
PC:17564     Total:2276126      MisBP:171231   MisRate:7.52%    MPKI:0.55
PC:16ca2     Total:1555540      MisBP:267618   MisRate:17.20%    MPKI:0.86
Totfetch:617469552  TotInsts:310000000  TotMis : inf%   MPKI : 10.37
=============finish sim!!!!!!=============
Done running SimPoint!
