Global frequency set at 1000000000000 ticks per second
 Register [printBranch()] ExitCallback !!!!!!! 
gem5 Simulator System.  https://www.gem5.org
gem5 is copyrighted software; use the --copyright option for details.

gem5 version 22.0.0.2
gem5 compiled Sep  7 2022 00:42:18
gem5 started Sep  7 2022 05:02:35
gem5 executing on a100, pid 2796793
command line: /data/zxf/gem5/gem5-prof/build/ARM/gem5.fast --outdir=/data/zxf/checkpoint/spec2006/445.gobmk/prof/gobmk_ckp_11 /data/zxf/gem5/gem5-prof/configs/example/se.py --cpu-type O3CPU --cpu-clock 1GHz --num-cpu 1 --caches --l2cache --l1i_size 32kB --l1d_size 32kB --l2_size 1MB --l1i_assoc 8 --l1d_assoc 8 --l2_assoc 16 --cacheline_size 64 --mem-type DDR3_2133_8x8 --mem-size 16GB --l1d-hwp-type=BOPPrefetcher --restore-simpoint-checkpoint -r 11 --checkpoint-dir /data/zxf/checkpoint/spec2006/445.gobmk/ckpt -i 13x13.tst -c gobmk_base.gcc41-64bit -o '--quiet --mode gtp'

info: Standard input is not a terminal, disabling listeners.
Resuming from /data/zxf/checkpoint/spec2006/445.gobmk/ckpt/cpt.simpoint_10_inst_210890000000_weight_0.055310_interval_300000000_warmup_10000000
Resuming from SimPoint #10, start_inst:210890000000, weight:0.055310, interval:300000000, warmup:10000000
Switch at curTick count:10000
Switched CPUS @ tick 142483995879500
[(<m5.objects.ArmCPU.ArmAtomicSimpleCPU object at 0x7f0667723bb0>, <m5.objects.ArmCPU.ArmO3CPU object at 0x7f066773ce20>)]
switching cpus



+++++++++++++++++++++++++zxf print simpoint+++++++++++++++++++++++++++
Warmed up! Dumping and resetting stats!


=============start sim!!!!!!=============
PC:4231a     Total:76      MisBP:0   MisRate:0.00%    MPKI:0.00
PC:2da96     Total:383      MisBP:0   MisRate:0.00%    MPKI:0.00
PC:4230e     Total:23      MisBP:0   MisRate:0.00%    MPKI:0.00
PC:2da98     Total:383      MisBP:0   MisRate:0.00%    MPKI:0.00
PC:42312     Total:23      MisBP:0   MisRate:0.00%    MPKI:0.00
PC:19226     Total:1      MisBP:0   MisRate:0.00%    MPKI:0.00
PC:42314     Total:701      MisBP:0   MisRate:0.00%    MPKI:0.00
PC:19228     Total:1      MisBP:0   MisRate:0.00%    MPKI:0.00
PC:2da9e     Total:383      MisBP:0   MisRate:0.00%    MPKI:0.00
PC:42318     Total:76      MisBP:0   MisRate:0.00%    MPKI:0.00
PC:1922c     Total:1      MisBP:0   MisRate:0.00%    MPKI:0.00
PC:42bfa     Total:21      MisBP:0   MisRate:0.00%    MPKI:0.00
PC:2daa4     Total:333      MisBP:0   MisRate:0.00%    MPKI:0.00
PC:4231c     Total:76      MisBP:0   MisRate:0.00%    MPKI:0.00
PC:19230     Total:1      MisBP:0   MisRate:0.00%    MPKI:0.00
PC:2daa6     Total:333      MisBP:0   MisRate:0.00%    MPKI:0.00
PC:4231e     Total:76      MisBP:0   MisRate:0.00%    MPKI:0.00
PC:19232     Total:1      MisBP:0   MisRate:0.00%    MPKI:0.00
PC:2daa8     Total:333      MisBP:0   MisRate:0.00%    MPKI:0.00
PC:42320     Total:76      MisBP:0   MisRate:0.00%    MPKI:0.00
PC:19234     Total:18      MisBP:0   MisRate:0.00%    MPKI:0.00
PC:42302     Total:47      MisBP:0   MisRate:0.00%    MPKI:0.00
PC:19210     Total:24      MisBP:0   MisRate:0.00%    MPKI:0.00
PC:41fb4     Total:117      MisBP:0   MisRate:0.00%    MPKI:0.00
PC:41fbc     Total:117      MisBP:0   MisRate:0.00%    MPKI:0.00
PC:42028     Total:553      MisBP:0   MisRate:0.00%    MPKI:0.00
PC:3f5b517c     Total:1      MisBP:0   MisRate:0.00%    MPKI:0.00
PC:42050     Total:50      MisBP:0   MisRate:0.00%    MPKI:0.00
PC:1876a     Total:385      MisBP:0   MisRate:0.00%    MPKI:0.00
PC:42144     Total:337      MisBP:0   MisRate:0.00%    MPKI:0.00
PC:422fe     Total:22      MisBP:0   MisRate:0.00%    MPKI:0.00
PC:2da88     Total:69      MisBP:0   MisRate:0.00%    MPKI:0.00
PC:2daaa     Total:333      MisBP:0   MisRate:0.00%    MPKI:0.00
PC:19216     Total:97      MisBP:0   MisRate:0.00%    MPKI:0.00
PC:2da8c     Total:69      MisBP:0   MisRate:0.00%    MPKI:0.00
PC:42304     Total:47      MisBP:0   MisRate:0.00%    MPKI:0.00
PC:2da8e     Total:69      MisBP:0   MisRate:0.00%    MPKI:0.00
PC:42308     Total:23      MisBP:0   MisRate:0.00%    MPKI:0.00
PC:4230a     Total:23      MisBP:0   MisRate:0.00%    MPKI:0.00
PC:1921e     Total:92      MisBP:0   MisRate:0.00%    MPKI:0.00
PC:2da94     Total:383      MisBP:0   MisRate:0.00%    MPKI:0.00
PC:4230c     Total:23      MisBP:0   MisRate:0.00%    MPKI:0.00
PC:42178     Total:6      MisBP:0   MisRate:0.00%    MPKI:0.00
PC:415c2     Total:313      MisBP:0   MisRate:0.00%    MPKI:0.00
PC:41874     Total:118      MisBP:0   MisRate:0.00%    MPKI:0.00
PC:18788     Total:334      MisBP:0   MisRate:0.00%    MPKI:0.00
PC:17ea2     Total:34966      MisBP:0   MisRate:0.00%    MPKI:0.00
PC:4187c     Total:99      MisBP:0   MisRate:0.00%    MPKI:0.00
PC:41882     Total:64      MisBP:0   MisRate:0.00%    MPKI:0.00
PC:42170     Total:89      MisBP:0   MisRate:0.00%    MPKI:0.00
PC:18796     Total:334      MisBP:0   MisRate:0.00%    MPKI:0.00
PC:41888     Total:76      MisBP:0   MisRate:0.00%    MPKI:0.00
PC:17eb0     Total:29358      MisBP:0   MisRate:0.00%    MPKI:0.00
PC:2f4e0     Total:8      MisBP:0   MisRate:0.00%    MPKI:0.00
PC:1879e     Total:1      MisBP:0   MisRate:0.00%    MPKI:0.00
PC:17eb4     Total:29204      MisBP:0   MisRate:0.00%    MPKI:0.00
PC:4188e     Total:9      MisBP:0   MisRate:0.00%    MPKI:0.00
PC:17eba     Total:22846      MisBP:0   MisRate:0.00%    MPKI:0.00
PC:41894     Total:9      MisBP:0   MisRate:0.00%    MPKI:0.00
PC:418a4     Total:2      MisBP:0   MisRate:0.00%    MPKI:0.00
PC:17ed0     Total:21573      MisBP:0   MisRate:0.00%    MPKI:0.00
PC:418aa     Total:1      MisBP:0   MisRate:0.00%    MPKI:0.00
PC:2e880     Total:821      MisBP:0   MisRate:0.00%    MPKI:0.00
PC:4232c     Total:76      MisBP:0   MisRate:0.00%    MPKI:0.00
PC:42324     Total:76      MisBP:0   MisRate:0.00%    MPKI:0.00
PC:19238     Total:18      MisBP:0   MisRate:0.00%    MPKI:0.00
PC:2daae     Total:333      MisBP:0   MisRate:0.00%    MPKI:0.00
PC:42326     Total:76      MisBP:0   MisRate:0.00%    MPKI:0.00
PC:2dab0     Total:396      MisBP:0   MisRate:0.00%    MPKI:0.00
PC:41f8e     Total:6      MisBP:0   MisRate:0.00%    MPKI:0.00
PC:42328     Total:76      MisBP:0   MisRate:0.00%    MPKI:0.00
PC:1923c     Total:18      MisBP:0   MisRate:0.00%    MPKI:0.00
PC:4232a     Total:76      MisBP:0   MisRate:0.00%    MPKI:0.00
PC:2dab4     Total:227      MisBP:0   MisRate:0.00%    MPKI:0.00
PC:42bea     Total:21      MisBP:0   MisRate:0.00%    MPKI:0.00
PC:2dab6     Total:227      MisBP:0   MisRate:0.00%    MPKI:0.00
PC:4232e     Total:76      MisBP:0   MisRate:0.00%    MPKI:0.00
PC:2dab8     Total:1135      MisBP:0   MisRate:0.00%    MPKI:0.00
PC:19242     Total:13      MisBP:0   MisRate:0.00%    MPKI:0.00
PC:42332     Total:76      MisBP:0   MisRate:0.00%    MPKI:0.00
PC:2dabc     Total:226      MisBP:0   MisRate:0.00%    MPKI:0.00
PC:42336     Total:76      MisBP:0   MisRate:0.00%    MPKI:0.00
PC:4233a     Total:111      MisBP:0   MisRate:0.00%    MPKI:0.00
PC:4233e     Total:144      MisBP:0   MisRate:0.00%    MPKI:0.00
PC:422c6     Total:39      MisBP:0   MisRate:0.00%    MPKI:0.00
PC:2da40     Total:27      MisBP:0   MisRate:0.00%    MPKI:0.00
PC:422ba     Total:86      MisBP:0   MisRate:0.00%    MPKI:0.00
PC:191ce     Total:305      MisBP:0   MisRate:0.00%    MPKI:0.00
PC:2da44     Total:27      MisBP:0   MisRate:0.00%    MPKI:0.00
PC:422be     Total:75      MisBP:0   MisRate:0.00%    MPKI:0.00
PC:191d2     Total:305      MisBP:0   MisRate:0.00%    MPKI:0.00
PC:2da48     Total:93      MisBP:0   MisRate:0.00%    MPKI:0.00
PC:422c0     Total:39      MisBP:0   MisRate:0.00%    MPKI:0.00
PC:422c4     Total:39      MisBP:0   MisRate:0.00%    MPKI:0.00
PC:42bb2     Total:1      MisBP:0   MisRate:0.00%    MPKI:0.00
PC:422b6     Total:87      MisBP:0   MisRate:0.00%    MPKI:0.00
PC:2da50     Total:93      MisBP:0   MisRate:0.00%    MPKI:0.00
PC:422c8     Total:39      MisBP:0   MisRate:0.00%    MPKI:0.00
PC:42bb6     Total:1      MisBP:0   MisRate:0.00%    MPKI:0.00
PC:191dc     Total:254      MisBP:0   MisRate:0.00%    MPKI:0.00
PC:2da52     Total:93      MisBP:0   MisRate:0.00%    MPKI:0.00
PC:422ca     Total:39      MisBP:0   MisRate:0.00%    MPKI:0.00
PC:191de     Total:180      MisBP:0   MisRate:0.00%    MPKI:0.00
PC:2da54     Total:93      MisBP:0   MisRate:0.00%    MPKI:0.00
PC:422ce     Total:40      MisBP:0   MisRate:0.00%    MPKI:0.00
PC:422ac     Total:81      MisBP:0   MisRate:0.00%    MPKI:0.00
PC:42b8c     Total:31      MisBP:0   MisRate:0.00%    MPKI:0.00
PC:191b2     Total:801      MisBP:0   MisRate:0.00%    MPKI:0.00
PC:188c6     Total:504150      MisBP:0   MisRate:0.00%    MPKI:0.00
PC:422a0     Total:81      MisBP:0   MisRate:0.00%    MPKI:0.00
PC:2da2a     Total:91      MisBP:0   MisRate:0.00%    MPKI:0.00
PC:422a4     Total:81      MisBP:0   MisRate:0.00%    MPKI:0.00
PC:2da2e     Total:91      MisBP:0   MisRate:0.00%    MPKI:0.00
PC:422a8     Total:81      MisBP:0   MisRate:0.00%    MPKI:0.00
PC:2da32     Total:89      MisBP:0   MisRate:0.00%    MPKI:0.00
PC:422aa     Total:81      MisBP:0   MisRate:0.00%    MPKI:0.00
PC:191e2     Total:180      MisBP:0   MisRate:0.00%    MPKI:0.00
PC:191c0     Total:541      MisBP:0   MisRate:0.00%    MPKI:0.00
PC:2da36     Total:89      MisBP:0   MisRate:0.00%    MPKI:0.00
PC:422ae     Total:81      MisBP:0   MisRate:0.00%    MPKI:0.00
PC:2da38     Total:89      MisBP:0   MisRate:0.00%    MPKI:0.00
PC:422b2     Total:87      MisBP:0   MisRate:0.00%    MPKI:0.00
PC:422b4     Total:87      MisBP:0   MisRate:0.00%    MPKI:0.00
PC:42ba2     Total:1      MisBP:0   MisRate:0.00%    MPKI:0.00
PC:191c8     Total:541      MisBP:0   MisRate:0.00%    MPKI:0.00
PC:2da3e     Total:89      MisBP:0   MisRate:0.00%    MPKI:0.00
PC:19208     Total:24      MisBP:0   MisRate:0.00%    MPKI:0.00
PC:422e6     Total:56      MisBP:0   MisRate:0.00%    MPKI:0.00
PC:191fa     Total:298      MisBP:0   MisRate:0.00%    MPKI:0.00
PC:422e8     Total:38      MisBP:0   MisRate:0.00%    MPKI:0.00
PC:2da72     Total:74      MisBP:0   MisRate:0.00%    MPKI:0.00
PC:422ec     Total:20      MisBP:0   MisRate:0.00%    MPKI:0.00
PC:2da76     Total:74      MisBP:0   MisRate:0.00%    MPKI:0.00
PC:422ee     Total:20      MisBP:0   MisRate:0.00%    MPKI:0.00
PC:19202     Total:94      MisBP:0   MisRate:0.00%    MPKI:0.00
PC:422f2     Total:18      MisBP:0   MisRate:0.00%    MPKI:0.00
PC:42be2     Total:21      MisBP:0   MisRate:0.00%    MPKI:0.00
PC:2da6e     Total:74      MisBP:0   MisRate:0.00%    MPKI:0.00
PC:2da7e     Total:69      MisBP:0   MisRate:0.00%    MPKI:0.00
PC:422f6     Total:18      MisBP:0   MisRate:0.00%    MPKI:0.00
PC:422f8     Total:18      MisBP:0   MisRate:0.00%    MPKI:0.00
PC:42be6     Total:21      MisBP:0   MisRate:0.00%    MPKI:0.00
PC:1920c     Total:24      MisBP:0   MisRate:0.00%    MPKI:0.00
PC:2da82     Total:69      MisBP:0   MisRate:0.00%    MPKI:0.00
PC:422fa     Total:36      MisBP:0   MisRate:0.00%    MPKI:0.00
PC:2da84     Total:69      MisBP:0   MisRate:0.00%    MPKI:0.00
PC:422fc     Total:36      MisBP:0   MisRate:0.00%    MPKI:0.00
PC:422da     Total:47      MisBP:0   MisRate:0.00%    MPKI:0.00
PC:2da58     Total:93      MisBP:0   MisRate:0.00%    MPKI:0.00
PC:422d0     Total:40      MisBP:0   MisRate:0.00%    MPKI:0.00
PC:422d2     Total:40      MisBP:0   MisRate:0.00%    MPKI:0.00
PC:191e6     Total:180      MisBP:0   MisRate:0.00%    MPKI:0.00
PC:2da5c     Total:93      MisBP:0   MisRate:0.00%    MPKI:0.00
PC:2da60     Total:93      MisBP:0   MisRate:0.00%    MPKI:0.00
PC:422d8     Total:47      MisBP:0   MisRate:0.00%    MPKI:0.00
PC:191ec     Total:180      MisBP:0   MisRate:0.00%    MPKI:0.00
PC:2da62     Total:93      MisBP:0   MisRate:0.00%    MPKI:0.00
PC:1a00a     Total:5      MisBP:0   MisRate:0.00%    MPKI:0.00
PC:2da64     Total:93      MisBP:0   MisRate:0.00%    MPKI:0.00
PC:422dc     Total:47      MisBP:0   MisRate:0.00%    MPKI:0.00
PC:191f0     Total:180      MisBP:0   MisRate:0.00%    MPKI:0.00
PC:2da66     Total:93      MisBP:0   MisRate:0.00%    MPKI:0.00
PC:422de     Total:47      MisBP:0   MisRate:0.00%    MPKI:0.00
PC:2da68     Total:74      MisBP:0   MisRate:0.00%    MPKI:0.00
PC:422e2     Total:47      MisBP:0   MisRate:0.00%    MPKI:0.00
PC:2da6c     Total:74      MisBP:0   MisRate:0.00%    MPKI:0.00
PC:422e4     Total:56      MisBP:0   MisRate:0.00%    MPKI:0.00
PC:5ff34     Total:7      MisBP:0   MisRate:0.00%    MPKI:0.00
PC:2e8ea     Total:386      MisBP:0   MisRate:0.00%    MPKI:0.00
PC:2e8ec     Total:386      MisBP:0   MisRate:0.00%    MPKI:0.00
PC:2ed74     Total:191      MisBP:0   MisRate:0.00%    MPKI:0.00
PC:2ed7c     Total:191      MisBP:0   MisRate:0.00%    MPKI:0.00
PC:2edae     Total:2      MisBP:0   MisRate:0.00%    MPKI:0.00
PC:1ad90     Total:76      MisBP:0   MisRate:0.00%    MPKI:0.00
PC:1ada6     Total:76      MisBP:0   MisRate:0.00%    MPKI:0.00
PC:1adbe     Total:71      MisBP:0   MisRate:0.00%    MPKI:0.00
PC:5ff2c     Total:7      MisBP:0   MisRate:0.00%    MPKI:0.00
PC:5ff30     Total:7      MisBP:0   MisRate:0.00%    MPKI:0.00
PC:2e8e6     Total:386      MisBP:0   MisRate:0.00%    MPKI:0.00
PC:5ff36     Total:7      MisBP:0   MisRate:0.00%    MPKI:0.00
PC:5ff3a     Total:7      MisBP:0   MisRate:0.00%    MPKI:0.00
PC:5ff3e     Total:7      MisBP:0   MisRate:0.00%    MPKI:0.00
PC:5ff40     Total:5      MisBP:0   MisRate:0.00%    MPKI:0.00
PC:5ff42     Total:5      MisBP:0   MisRate:0.00%    MPKI:0.00
PC:5ff46     Total:1      MisBP:0   MisRate:0.00%    MPKI:0.00
PC:5ff48     Total:915      MisBP:0   MisRate:0.00%    MPKI:0.00
PC:5ff4a     Total:183      MisBP:0   MisRate:0.00%    MPKI:0.00
PC:5ff4e     Total:183      MisBP:0   MisRate:0.00%    MPKI:0.00
PC:2e75c     Total:404      MisBP:0   MisRate:0.00%    MPKI:0.00
PC:2e5d6     Total:181      MisBP:0   MisRate:0.00%    MPKI:0.00
PC:19d60     Total:30      MisBP:0   MisRate:0.00%    MPKI:0.00
PC:2e5da     Total:181      MisBP:0   MisRate:0.00%    MPKI:0.00
PC:19d64     Total:30      MisBP:0   MisRate:0.00%    MPKI:0.00
PC:2e5e0     Total:178      MisBP:0   MisRate:0.00%    MPKI:0.00
PC:19d6a     Total:20      MisBP:0   MisRate:0.00%    MPKI:0.00
PC:2e5e2     Total:172      MisBP:0   MisRate:0.00%    MPKI:0.00
PC:19d6c     Total:30      MisBP:0   MisRate:0.00%    MPKI:0.00
PC:2e5e6     Total:172      MisBP:0   MisRate:0.00%    MPKI:0.00
PC:19d70     Total:30      MisBP:0   MisRate:0.00%    MPKI:0.00
PC:5ff52     Total:183      MisBP:0   MisRate:0.00%    MPKI:0.00
PC:2e760     Total:404      MisBP:0   MisRate:0.00%    MPKI:0.00
PC:2e764     Total:404      MisBP:0   MisRate:0.00%    MPKI:0.00
PC:2e766     Total:404      MisBP:0   MisRate:0.00%    MPKI:0.00
PC:19ef0     Total:1      MisBP:0   MisRate:0.00%    MPKI:0.00
PC:2e768     Total:404      MisBP:0   MisRate:0.00%    MPKI:0.00
PC:2e76a     Total:404      MisBP:0   MisRate:0.00%    MPKI:0.00
PC:19ef4     Total:1      MisBP:0   MisRate:0.00%    MPKI:0.00
PC:2e76c     Total:403      MisBP:0   MisRate:0.00%    MPKI:0.00
PC:19ef6     Total:1      MisBP:0   MisRate:0.00%    MPKI:0.00
PC:48b7c     Total:37      MisBP:0   MisRate:0.00%    MPKI:0.00
PC:9ac16     Total:1      MisBP:0   MisRate:0.00%    MPKI:0.00
PC:48a5a     Total:53      MisBP:0   MisRate:0.00%    MPKI:0.00
PC:4787e     Total:4167      MisBP:0   MisRate:0.00%    MPKI:0.00
PC:9ac32     Total:1      MisBP:0   MisRate:0.00%    MPKI:0.00
PC:341e4     Total:1      MisBP:0   MisRate:0.00%    MPKI:0.00
PC:48b40     Total:17      MisBP:0   MisRate:0.00%    MPKI:0.00
PC:48b52     Total:7      MisBP:0   MisRate:0.00%    MPKI:0.00
PC:48b56     Total:7      MisBP:0   MisRate:0.00%    MPKI:0.00
PC:48b60     Total:14      MisBP:0   MisRate:0.00%    MPKI:0.00
PC:48b6a     Total:15      MisBP:0   MisRate:0.00%    MPKI:0.00
PC:47862     Total:4293      MisBP:0   MisRate:0.00%    MPKI:0.00
PC:3179c     Total:170      MisBP:0   MisRate:0.00%    MPKI:0.00
PC:1cf26     Total:6      MisBP:0   MisRate:0.00%    MPKI:0.00
PC:3179e     Total:170      MisBP:0   MisRate:0.00%    MPKI:0.00
PC:317a0     Total:170      MisBP:0   MisRate:0.00%    MPKI:0.00
PC:1cf2a     Total:6      MisBP:0   MisRate:0.00%    MPKI:0.00
PC:317a2     Total:168      MisBP:0   MisRate:0.00%    MPKI:0.00
PC:317a6     Total:231      MisBP:0   MisRate:0.00%    MPKI:0.00
PC:1cf30     Total:6      MisBP:0   MisRate:0.00%    MPKI:0.00
PC:317a8     Total:241      MisBP:0   MisRate:0.00%    MPKI:0.00
PC:34196     Total:3      MisBP:0   MisRate:0.00%    MPKI:0.00
PC:5ff54     Total:182      MisBP:0   MisRate:0.00%    MPKI:0.00
PC:5ff58     Total:182      MisBP:0   MisRate:0.00%    MPKI:0.00
PC:5ff5a     Total:182      MisBP:0   MisRate:0.00%    MPKI:0.00
PC:5ff5e     Total:182      MisBP:0   MisRate:0.00%    MPKI:0.00
PC:5ff60     Total:182      MisBP:0   MisRate:0.00%    MPKI:0.00
PC:48a08     Total:64      MisBP:0   MisRate:0.00%    MPKI:0.00
PC:9abe0     Total:6      MisBP:0   MisRate:0.00%    MPKI:0.00
PC:34192     Total:3      MisBP:0   MisRate:0.00%    MPKI:0.00
PC:48a0c     Total:64      MisBP:0   MisRate:0.00%    MPKI:0.00
PC:19d5e     Total:30      MisBP:0   MisRate:0.00%    MPKI:0.00
PC:9abe8     Total:6      MisBP:0   MisRate:0.00%    MPKI:0.00
PC:3419a     Total:3      MisBP:0   MisRate:0.00%    MPKI:0.00
PC:48a2a     Total:64      MisBP:0   MisRate:0.00%    MPKI:0.00
PC:341b4     Total:2      MisBP:0   MisRate:0.00%    MPKI:0.00
PC:48a32     Total:64      MisBP:0   MisRate:0.00%    MPKI:0.00
PC:341bc     Total:3      MisBP:0   MisRate:0.00%    MPKI:0.00
PC:48a36     Total:65      MisBP:0   MisRate:0.00%    MPKI:0.00
PC:341c0     Total:1      MisBP:0   MisRate:0.00%    MPKI:0.00
PC:48a3e     Total:63      MisBP:0   MisRate:0.00%    MPKI:0.00
PC:323c2     Total:48      MisBP:0   MisRate:0.00%    MPKI:0.00
PC:1a03e     Total:10      MisBP:0   MisRate:0.00%    MPKI:0.00
PC:2e8b8     Total:158      MisBP:0   MisRate:0.00%    MPKI:0.00
PC:1a042     Total:10      MisBP:0   MisRate:0.00%    MPKI:0.00
PC:2e8ba     Total:158      MisBP:0   MisRate:0.00%    MPKI:0.00
PC:1a044     Total:10      MisBP:0   MisRate:0.00%    MPKI:0.00
PC:2e8be     Total:2      MisBP:0   MisRate:0.00%    MPKI:0.00
PC:16328     Total:11520      MisBP:0   MisRate:0.00%    MPKI:0.00
PC:3fd02     Total:22      MisBP:0   MisRate:0.00%    MPKI:0.00
PC:3fd0a     Total:22      MisBP:0   MisRate:0.00%    MPKI:0.00
PC:323c0     Total:48      MisBP:0   MisRate:0.00%    MPKI:0.00
PC:2e8b4     Total:158      MisBP:0   MisRate:0.00%    MPKI:0.00
PC:323c6     Total:48      MisBP:0   MisRate:0.00%    MPKI:0.00
PC:99aa2     Total:7      MisBP:0   MisRate:0.00%    MPKI:0.00
PC:1cd14     Total:39      MisBP:0   MisRate:0.00%    MPKI:0.00
PC:41710     Total:245      MisBP:0   MisRate:0.00%    MPKI:0.00
PC:4171a     Total:209      MisBP:0   MisRate:0.00%    MPKI:0.00
PC:4171e     Total:208      MisBP:0   MisRate:0.00%    MPKI:0.00
PC:4160a     Total:106      MisBP:0   MisRate:0.00%    MPKI:0.00
PC:288bc     Total:33771      MisBP:0   MisRate:0.00%    MPKI:0.00
PC:7bc70     Total:14      MisBP:0   MisRate:0.00%    MPKI:0.00
PC:2e896     Total:161      MisBP:0   MisRate:0.00%    MPKI:0.00
PC:2e884     Total:821      MisBP:0   MisRate:0.00%    MPKI:0.00
PC:1a00e     Total:5      MisBP:0   MisRate:0.00%    MPKI:0.00
PC:2e888     Total:821      MisBP:0   MisRate:0.00%    MPKI:0.00
PC:1a012     Total:5      MisBP:0   MisRate:0.00%    MPKI:0.00
PC:1a016     Total:5      MisBP:0   MisRate:0.00%    MPKI:0.00
PC:1a018     Total:5      MisBP:0   MisRate:0.00%    MPKI:0.00
PC:2e890     Total:45      MisBP:0   MisRate:0.00%    MPKI:0.00
PC:1a01a     Total:5      MisBP:0   MisRate:0.00%    MPKI:0.00
PC:2e892     Total:45      MisBP:0   MisRate:0.00%    MPKI:0.00
PC:1a01e     Total:5      MisBP:0   MisRate:0.00%    MPKI:0.00
PC:3e30e     Total:77      MisBP:0   MisRate:0.00%    MPKI:0.00
PC:1a020     Total:5      MisBP:0   MisRate:0.00%    MPKI:0.00
PC:2e898     Total:161      MisBP:0   MisRate:0.00%    MPKI:0.00
PC:1a022     Total:5      MisBP:0   MisRate:0.00%    MPKI:0.00
PC:2e89c     Total:161      MisBP:0   MisRate:0.00%    MPKI:0.00
PC:1a026     Total:5      MisBP:0   MisRate:0.00%    MPKI:0.00
PC:2e8a0     Total:161      MisBP:0   MisRate:0.00%    MPKI:0.00
PC:1a02a     Total:5      MisBP:0   MisRate:0.00%    MPKI:0.00
PC:2e8aa     Total:158      MisBP:0   MisRate:0.00%    MPKI:0.00
PC:2e8b0     Total:158      MisBP:0   MisRate:0.00%    MPKI:0.00
PC:2e5c6     Total:1      MisBP:0   MisRate:0.00%    MPKI:0.00
PC:19d3c     Total:30      MisBP:0   MisRate:0.00%    MPKI:0.00
PC:2e5b6     Total:517      MisBP:0   MisRate:0.00%    MPKI:0.00
PC:19d40     Total:22      MisBP:0   MisRate:0.00%    MPKI:0.00
PC:2e5b8     Total:512      MisBP:0   MisRate:0.00%    MPKI:0.00
PC:2e5bc     Total:512      MisBP:0   MisRate:0.00%    MPKI:0.00
PC:19d46     Total:22      MisBP:0   MisRate:0.00%    MPKI:0.00
PC:2e5be     Total:277      MisBP:0   MisRate:0.00%    MPKI:0.00
PC:2e5c2     Total:277      MisBP:0   MisRate:0.00%    MPKI:0.00
PC:19d4c     Total:31      MisBP:0   MisRate:0.00%    MPKI:0.00
PC:2e5c4     Total:277      MisBP:0   MisRate:0.00%    MPKI:0.00
PC:2e5b2     Total:517      MisBP:0   MisRate:0.00%    MPKI:0.00
PC:19d50     Total:31      MisBP:0   MisRate:0.00%    MPKI:0.00
PC:2e5c8     Total:1      MisBP:0   MisRate:0.00%    MPKI:0.00
PC:2e5ca     Total:1      MisBP:0   MisRate:0.00%    MPKI:0.00
PC:19d54     Total:31      MisBP:0   MisRate:0.00%    MPKI:0.00
PC:2e5cc     Total:208      MisBP:0   MisRate:0.00%    MPKI:0.00
PC:19d56     Total:31      MisBP:0   MisRate:0.00%    MPKI:0.00
PC:2e5d0     Total:208      MisBP:0   MisRate:0.00%    MPKI:0.00
PC:19d5a     Total:30      MisBP:0   MisRate:0.00%    MPKI:0.00
PC:2e5d4     Total:181      MisBP:0   MisRate:0.00%    MPKI:0.00
PC:417ea     Total:385      MisBP:0   MisRate:0.00%    MPKI:0.00
PC:3e312     Total:91      MisBP:0   MisRate:0.00%    MPKI:0.00
PC:3e314     Total:85      MisBP:0   MisRate:0.00%    MPKI:0.00
PC:3e318     Total:85      MisBP:0   MisRate:0.00%    MPKI:0.00
PC:16d66     Total:1790      MisBP:0   MisRate:0.00%    MPKI:0.00
PC:40740     Total:4      MisBP:0   MisRate:0.00%    MPKI:0.00
PC:40744     Total:4      MisBP:0   MisRate:0.00%    MPKI:0.00
PC:40748     Total:4      MisBP:0   MisRate:0.00%    MPKI:0.00
PC:4074c     Total:4      MisBP:0   MisRate:0.00%    MPKI:0.00
PC:beffada8     Total:1      MisBP:0   MisRate:0.00%    MPKI:0.00
PC:188c4     Total:252271      MisBP:0   MisRate:0.00%    MPKI:0.00
PC:417f0     Total:441      MisBP:0   MisRate:0.00%    MPKI:0.00
PC:417f2     Total:441      MisBP:0   MisRate:0.00%    MPKI:0.00
PC:417f6     Total:131      MisBP:0   MisRate:0.00%    MPKI:0.00
PC:417f8     Total:131      MisBP:0   MisRate:0.00%    MPKI:0.00
PC:417fc     Total:134      MisBP:0   MisRate:0.00%    MPKI:0.00
PC:3da22     Total:4      MisBP:0   MisRate:0.00%    MPKI:0.00
PC:52298     Total:94      MisBP:0   MisRate:0.00%    MPKI:0.00
PC:2e5b0     Total:517      MisBP:0   MisRate:0.00%    MPKI:0.00
PC:19d3a     Total:30      MisBP:0   MisRate:0.00%    MPKI:0.00
PC:3bb9c     Total:9      MisBP:0   MisRate:0.00%    MPKI:0.00
PC:5cd8e     Total:321      MisBP:0   MisRate:0.00%    MPKI:0.00
PC:5cd98     Total:321      MisBP:0   MisRate:0.00%    MPKI:0.00
PC:5cdae     Total:82      MisBP:0   MisRate:0.00%    MPKI:0.00
PC:2731c     Total:4      MisBP:0   MisRate:0.00%    MPKI:0.00
PC:3bb92     Total:6      MisBP:0   MisRate:0.00%    MPKI:0.00
PC:27320     Total:4      MisBP:0   MisRate:0.00%    MPKI:0.00
PC:3bb96     Total:6      MisBP:0   MisRate:0.00%    MPKI:0.00
PC:27324     Total:4      MisBP:0   MisRate:0.00%    MPKI:0.00
PC:794fe     Total:244      MisBP:0   MisRate:0.00%    MPKI:0.00
PC:27326     Total:4      MisBP:0   MisRate:0.00%    MPKI:0.00
PC:333b4     Total:2      MisBP:0   MisRate:0.00%    MPKI:0.00
PC:79502     Total:1220      MisBP:0   MisRate:0.00%    MPKI:0.00
PC:2732a     Total:4      MisBP:0   MisRate:0.00%    MPKI:0.00
PC:3bba0     Total:10      MisBP:0   MisRate:0.00%    MPKI:0.00
PC:2732c     Total:4      MisBP:0   MisRate:0.00%    MPKI:0.00
PC:3bba4     Total:10      MisBP:0   MisRate:0.00%    MPKI:0.00
PC:7950a     Total:231      MisBP:0   MisRate:0.00%    MPKI:0.00
PC:27332     Total:2      MisBP:0   MisRate:0.00%    MPKI:0.00
PC:3bbaa     Total:9      MisBP:0   MisRate:0.00%    MPKI:0.00
PC:27336     Total:2      MisBP:0   MisRate:0.00%    MPKI:0.00
PC:5cd54     Total:17      MisBP:0   MisRate:0.00%    MPKI:0.00
PC:3bc1c     Total:9      MisBP:0   MisRate:0.00%    MPKI:0.00
PC:79580     Total:564      MisBP:0   MisRate:0.00%    MPKI:0.00
PC:3bc1e     Total:9      MisBP:0   MisRate:0.00%    MPKI:0.00
PC:33352     Total:57      MisBP:0   MisRate:0.00%    MPKI:0.00
PC:5cd2c     Total:73      MisBP:0   MisRate:0.00%    MPKI:0.00
PC:5cd3c     Total:129      MisBP:0   MisRate:0.00%    MPKI:0.00
PC:3336c     Total:12      MisBP:0   MisRate:0.00%    MPKI:0.00
PC:5cd46     Total:17      MisBP:0   MisRate:0.00%    MPKI:0.00
PC:5cd50     Total:17      MisBP:0   MisRate:0.00%    MPKI:0.00
PC:3337a     Total:12      MisBP:0   MisRate:0.00%    MPKI:0.00
PC:79510     Total:231      MisBP:0   MisRate:0.00%    MPKI:0.00
PC:5cd58     Total:17      MisBP:0   MisRate:0.00%    MPKI:0.00
PC:5cd5c     Total:17      MisBP:0   MisRate:0.00%    MPKI:0.00
PC:5cd74     Total:17      MisBP:0   MisRate:0.00%    MPKI:0.00
PC:333a0     Total:32      MisBP:0   MisRate:0.00%    MPKI:0.00
PC:5cd7a     Total:12      MisBP:0   MisRate:0.00%    MPKI:0.00
PC:333a8     Total:33      MisBP:0   MisRate:0.00%    MPKI:0.00
PC:5cd82     Total:89      MisBP:0   MisRate:0.00%    MPKI:0.00
PC:333b0     Total:33      MisBP:0   MisRate:0.00%    MPKI:0.00
PC:5cd8a     Total:244      MisBP:0   MisRate:0.00%    MPKI:0.00
PC:3bbd0     Total:8      MisBP:0   MisRate:0.00%    MPKI:0.00
PC:79528     Total:37      MisBP:0   MisRate:0.00%    MPKI:0.00
PC:27350     Total:1      MisBP:0   MisRate:0.00%    MPKI:0.00
PC:3bbc6     Total:8      MisBP:0   MisRate:0.00%    MPKI:0.00
PC:27352     Total:1      MisBP:0   MisRate:0.00%    MPKI:0.00
PC:3bbc8     Total:8      MisBP:0   MisRate:0.00%    MPKI:0.00
PC:3bbca     Total:8      MisBP:0   MisRate:0.00%    MPKI:0.00
PC:7952e     Total:37      MisBP:0   MisRate:0.00%    MPKI:0.00
PC:27356     Total:1      MisBP:0   MisRate:0.00%    MPKI:0.00
PC:3bbcc     Total:8      MisBP:0   MisRate:0.00%    MPKI:0.00
PC:2735a     Total:1      MisBP:0   MisRate:0.00%    MPKI:0.00
PC:3bbc2     Total:8      MisBP:0   MisRate:0.00%    MPKI:0.00
PC:79534     Total:33      MisBP:0   MisRate:0.00%    MPKI:0.00
PC:2735e     Total:1      MisBP:0   MisRate:0.00%    MPKI:0.00
PC:3bbd4     Total:8      MisBP:0   MisRate:0.00%    MPKI:0.00
PC:79538     Total:125      MisBP:0   MisRate:0.00%    MPKI:0.00
PC:3bbd6     Total:8      MisBP:0   MisRate:0.00%    MPKI:0.00
PC:7c928     Total:434      MisBP:0   MisRate:0.00%    MPKI:0.00
PC:155ec     Total:50850      MisBP:0   MisRate:0.00%    MPKI:0.00
PC:3efc6     Total:1      MisBP:0   MisRate:0.00%    MPKI:0.00
PC:7c92c     Total:434      MisBP:0   MisRate:0.00%    MPKI:0.00
PC:3bbb8     Total:9      MisBP:0   MisRate:0.00%    MPKI:0.00
PC:27338     Total:2      MisBP:0   MisRate:0.00%    MPKI:0.00
PC:3bbae     Total:9      MisBP:0   MisRate:0.00%    MPKI:0.00
PC:79514     Total:162      MisBP:0   MisRate:0.00%    MPKI:0.00
PC:2733c     Total:2      MisBP:0   MisRate:0.00%    MPKI:0.00
PC:3bbb2     Total:9      MisBP:0   MisRate:0.00%    MPKI:0.00
PC:2733e     Total:1      MisBP:0   MisRate:0.00%    MPKI:0.00
PC:79518     Total:161      MisBP:0   MisRate:0.00%    MPKI:0.00
PC:3bbb6     Total:9      MisBP:0   MisRate:0.00%    MPKI:0.00
PC:27342     Total:1      MisBP:0   MisRate:0.00%    MPKI:0.00
PC:273a6     Total:1184      MisBP:0   MisRate:0.00%    MPKI:0.00
PC:27344     Total:1      MisBP:0   MisRate:0.00%    MPKI:0.00
PC:3bbba     Total:9      MisBP:0   MisRate:0.00%    MPKI:0.00
PC:7951e     Total:17      MisBP:0   MisRate:0.00%    MPKI:0.00
PC:27346     Total:1      MisBP:0   MisRate:0.00%    MPKI:0.00
PC:3bbbc     Total:9      MisBP:0   MisRate:0.00%    MPKI:0.00
PC:3bbbe     Total:9      MisBP:0   MisRate:0.00%    MPKI:0.00
PC:2734a     Total:1      MisBP:0   MisRate:0.00%    MPKI:0.00
PC:3bbc0     Total:8      MisBP:0   MisRate:0.00%    MPKI:0.00
PC:2734c     Total:1      MisBP:0   MisRate:0.00%    MPKI:0.00
PC:3bc42     Total:6      MisBP:0   MisRate:0.00%    MPKI:0.00
PC:7959a     Total:247      MisBP:0   MisRate:0.00%    MPKI:0.00
PC:273c2     Total:218      MisBP:0   MisRate:0.00%    MPKI:0.00
PC:3bc38     Total:12      MisBP:0   MisRate:0.00%    MPKI:0.00
PC:7959c     Total:247      MisBP:0   MisRate:0.00%    MPKI:0.00
PC:273c4     Total:218      MisBP:0   MisRate:0.00%    MPKI:0.00
PC:795a0     Total:164      MisBP:0   MisRate:0.00%    MPKI:0.00
PC:273c8     Total:218      MisBP:0   MisRate:0.00%    MPKI:0.00
PC:3bc3e     Total:12      MisBP:0   MisRate:0.00%    MPKI:0.00
PC:3bc40     Total:6      MisBP:0   MisRate:0.00%    MPKI:0.00
PC:795a4     Total:164      MisBP:0   MisRate:0.00%    MPKI:0.00
PC:3bc36     Total:12      MisBP:0   MisRate:0.00%    MPKI:0.00
PC:795a6     Total:537      MisBP:0   MisRate:0.00%    MPKI:0.00
PC:3bc44     Total:6      MisBP:0   MisRate:0.00%    MPKI:0.00
PC:7953c     Total:410      MisBP:0   MisRate:0.00%    MPKI:0.00
PC:3bbda     Total:8      MisBP:0   MisRate:0.00%    MPKI:0.00
PC:79544     Total:399      MisBP:0   MisRate:0.00%    MPKI:0.00
PC:2736c     Total:1      MisBP:0   MisRate:0.00%    MPKI:0.00
PC:3bbe4     Total:8      MisBP:0   MisRate:0.00%    MPKI:0.00
PC:27372     Total:1      MisBP:0   MisRate:0.00%    MPKI:0.00
PC:3bbe8     Total:4      MisBP:0   MisRate:0.00%    MPKI:0.00
PC:3bc22     Total:9      MisBP:0   MisRate:0.00%    MPKI:0.00
PC:795ce     Total:391      MisBP:0   MisRate:0.00%    MPKI:0.00
PC:3bc6c     Total:6      MisBP:0   MisRate:0.00%    MPKI:0.00
PC:795d0     Total:390      MisBP:0   MisRate:0.00%    MPKI:0.00
PC:3bc6e     Total:6      MisBP:0   MisRate:0.00%    MPKI:0.00
PC:795d4     Total:306      MisBP:0   MisRate:0.00%    MPKI:0.00
PC:3bc74     Total:6      MisBP:0   MisRate:0.00%    MPKI:0.00
PC:795d8     Total:263      MisBP:0   MisRate:0.00%    MPKI:0.00
PC:795da     Total:852      MisBP:0   MisRate:0.00%    MPKI:0.00
PC:3bc78     Total:6      MisBP:0   MisRate:0.00%    MPKI:0.00
PC:79584     Total:252      MisBP:0   MisRate:0.00%    MPKI:0.00
PC:27374     Total:1      MisBP:0   MisRate:0.00%    MPKI:0.00
PC:79588     Total:252      MisBP:0   MisRate:0.00%    MPKI:0.00
PC:7958c     Total:252      MisBP:0   MisRate:0.00%    MPKI:0.00
PC:3bc2a     Total:8      MisBP:0   MisRate:0.00%    MPKI:0.00
PC:7958e     Total:252      MisBP:0   MisRate:0.00%    MPKI:0.00
PC:273b6     Total:257      MisBP:0   MisRate:0.00%    MPKI:0.00
PC:79592     Total:756      MisBP:0   MisRate:0.00%    MPKI:0.00
PC:273ba     Total:253      MisBP:0   MisRate:0.00%    MPKI:0.00
PC:79594     Total:252      MisBP:0   MisRate:0.00%    MPKI:0.00
PC:79598     Total:247      MisBP:0   MisRate:0.00%    MPKI:0.00
PC:3bc10     Total:1      MisBP:0   MisRate:0.00%    MPKI:0.00
PC:3bc02     Total:1      MisBP:0   MisRate:0.00%    MPKI:0.00
PC:3bc04     Total:1      MisBP:0   MisRate:0.00%    MPKI:0.00
PC:27390     Total:604      MisBP:0   MisRate:0.00%    MPKI:0.00
PC:3bc08     Total:1      MisBP:0   MisRate:0.00%    MPKI:0.00
PC:7956c     Total:86      MisBP:0   MisRate:0.00%    MPKI:0.00
PC:27394     Total:604      MisBP:0   MisRate:0.00%    MPKI:0.00
PC:3bc0a     Total:1      MisBP:0   MisRate:0.00%    MPKI:0.00
PC:79570     Total:102      MisBP:0   MisRate:0.00%    MPKI:0.00
PC:27398     Total:604      MisBP:0   MisRate:0.00%    MPKI:0.00
PC:3bc0e     Total:1      MisBP:0   MisRate:0.00%    MPKI:0.00
PC:2738c     Total:604      MisBP:0   MisRate:0.00%    MPKI:0.00
PC:79574     Total:102      MisBP:0   MisRate:0.00%    MPKI:0.00
PC:2739c     Total:601      MisBP:0   MisRate:0.00%    MPKI:0.00
PC:3bc12     Total:1      MisBP:0   MisRate:0.00%    MPKI:0.00
PC:79576     Total:102      MisBP:0   MisRate:0.00%    MPKI:0.00
PC:7957a     Total:202      MisBP:0   MisRate:0.00%    MPKI:0.00
PC:3bc18     Total:9      MisBP:0   MisRate:0.00%    MPKI:0.00
PC:7957c     Total:202      MisBP:0   MisRate:0.00%    MPKI:0.00
PC:3bc1a     Total:9      MisBP:0   MisRate:0.00%    MPKI:0.00
PC:7957e     Total:202      MisBP:0   MisRate:0.00%    MPKI:0.00
PC:79558     Total:398      MisBP:0   MisRate:0.00%    MPKI:0.00
PC:3bbea     Total:4      MisBP:0   MisRate:0.00%    MPKI:0.00
PC:27376     Total:1      MisBP:0   MisRate:0.00%    MPKI:0.00
PC:3bbec     Total:4      MisBP:0   MisRate:0.00%    MPKI:0.00
PC:2737a     Total:1      MisBP:0   MisRate:0.00%    MPKI:0.00
PC:3bbf0     Total:4      MisBP:0   MisRate:0.00%    MPKI:0.00
PC:79554     Total:398      MisBP:0   MisRate:0.00%    MPKI:0.00
PC:2737c     Total:1      MisBP:0   MisRate:0.00%    MPKI:0.00
PC:3bbf2     Total:4      MisBP:0   MisRate:0.00%    MPKI:0.00
PC:2737e     Total:196      MisBP:0   MisRate:0.00%    MPKI:0.00
PC:3efca     Total:60      MisBP:0   MisRate:0.00%    MPKI:0.00
PC:3bbf6     Total:2      MisBP:0   MisRate:0.00%    MPKI:0.00
PC:7955c     Total:275      MisBP:0   MisRate:0.00%    MPKI:0.00
PC:3bbfa     Total:2      MisBP:0   MisRate:0.00%    MPKI:0.00
PC:27386     Total:604      MisBP:0   MisRate:0.00%    MPKI:0.00
PC:3bbfc     Total:2      MisBP:0   MisRate:0.00%    MPKI:0.00
PC:27388     Total:604      MisBP:0   MisRate:0.00%    MPKI:0.00
PC:3bbfe     Total:2      MisBP:0   MisRate:0.00%    MPKI:0.00
PC:79562     Total:1124      MisBP:0   MisRate:0.00%    MPKI:0.00
PC:3bc00     Total:1      MisBP:0   MisRate:0.00%    MPKI:0.00
PC:32dc6     Total:200      MisBP:0   MisRate:0.00%    MPKI:0.00
PC:31b9c     Total:137720      MisBP:0   MisRate:0.00%    MPKI:0.00
PC:84f50     Total:28      MisBP:0   MisRate:0.00%    MPKI:0.00
PC:32d7a     Total:254      MisBP:0   MisRate:0.00%    MPKI:0.00
PC:31ba0     Total:137648      MisBP:0   MisRate:0.00%    MPKI:0.00
PC:84f54     Total:28      MisBP:0   MisRate:0.00%    MPKI:0.00
PC:32d7e     Total:95      MisBP:0   MisRate:0.00%    MPKI:0.00
PC:31ba2     Total:137648      MisBP:0   MisRate:0.00%    MPKI:0.00
PC:84f56     Total:28      MisBP:0   MisRate:0.00%    MPKI:0.00
PC:32dc4     Total:200      MisBP:0   MisRate:0.00%    MPKI:0.00
PC:84f9c     Total:16      MisBP:0   MisRate:0.00%    MPKI:0.00
PC:32d78     Total:254      MisBP:0   MisRate:0.00%    MPKI:0.00
PC:32dc8     Total:200      MisBP:0   MisRate:0.00%    MPKI:0.00
PC:84fa0     Total:16      MisBP:0   MisRate:0.00%    MPKI:0.00
PC:32dcc     Total:159      MisBP:0   MisRate:0.00%    MPKI:0.00
PC:31bf0     Total:870      MisBP:0   MisRate:0.00%    MPKI:0.00
PC:84fa4     Total:16      MisBP:0   MisRate:0.00%    MPKI:0.00
PC:84fa6     Total:16      MisBP:0   MisRate:0.00%    MPKI:0.00
PC:32dd0     Total:65      MisBP:0   MisRate:0.00%    MPKI:0.00
PC:32dd2     Total:211      MisBP:0   MisRate:0.00%    MPKI:0.00
PC:84faa     Total:16      MisBP:0   MisRate:0.00%    MPKI:0.00
PC:84f44     Total:28      MisBP:0   MisRate:0.00%    MPKI:0.00
PC:31b86     Total:8709      MisBP:0   MisRate:0.00%    MPKI:0.00
PC:84f3a     Total:29      MisBP:0   MisRate:0.00%    MPKI:0.00
PC:32d64     Total:136      MisBP:0   MisRate:0.00%    MPKI:0.00
PC:31b88     Total:8709      MisBP:0   MisRate:0.00%    MPKI:0.00
PC:84f3c     Total:29      MisBP:0   MisRate:0.00%    MPKI:0.00
PC:32d68     Total:136      MisBP:0   MisRate:0.00%    MPKI:0.00
PC:31b8c     Total:8709      MisBP:0   MisRate:0.00%    MPKI:0.00
PC:84f40     Total:28      MisBP:0   MisRate:0.00%    MPKI:0.00
PC:32d6c     Total:136      MisBP:0   MisRate:0.00%    MPKI:0.00
PC:31b90     Total:1      MisBP:0   MisRate:0.00%    MPKI:0.00
PC:32dd4     Total:211      MisBP:0   MisRate:0.00%    MPKI:0.00
PC:32d6e     Total:136      MisBP:0   MisRate:0.00%    MPKI:0.00
PC:31b92     Total:1      MisBP:0   MisRate:0.00%    MPKI:0.00
PC:84f46     Total:28      MisBP:0   MisRate:0.00%    MPKI:0.00
PC:32d72     Total:136      MisBP:0   MisRate:0.00%    MPKI:0.00
PC:31b96     Total:1      MisBP:0   MisRate:0.00%    MPKI:0.00
PC:84f4a     Total:28      MisBP:0   MisRate:0.00%    MPKI:0.00
PC:32d74     Total:136      MisBP:0   MisRate:0.00%    MPKI:0.00
PC:31b98     Total:1      MisBP:0   MisRate:0.00%    MPKI:0.00
PC:84f4c     Total:28      MisBP:0   MisRate:0.00%    MPKI:0.00
PC:188aa     Total:104933      MisBP:0   MisRate:0.00%    MPKI:0.00
PC:604d2     Total:2      MisBP:0   MisRate:0.00%    MPKI:0.00
PC:36af8     Total:292      MisBP:0   MisRate:0.00%    MPKI:0.00
PC:604d6     Total:2      MisBP:0   MisRate:0.00%    MPKI:0.00
PC:36afc     Total:292      MisBP:0   MisRate:0.00%    MPKI:0.00
PC:604da     Total:2      MisBP:0   MisRate:0.00%    MPKI:0.00
PC:36b00     Total:283      MisBP:0   MisRate:0.00%    MPKI:0.00
PC:604de     Total:2      MisBP:0   MisRate:0.00%    MPKI:0.00
PC:36b04     Total:283      MisBP:0   MisRate:0.00%    MPKI:0.00
PC:604e2     Total:2      MisBP:0   MisRate:0.00%    MPKI:0.00
PC:36b08     Total:283      MisBP:0   MisRate:0.00%    MPKI:0.00
PC:36af4     Total:292      MisBP:0   MisRate:0.00%    MPKI:0.00
PC:42284     Total:19      MisBP:0   MisRate:0.00%    MPKI:0.00
PC:188ae     Total:102160      MisBP:0   MisRate:0.00%    MPKI:0.00
PC:42288     Total:19      MisBP:0   MisRate:0.00%    MPKI:0.00
PC:188b8     Total:102113      MisBP:0   MisRate:0.00%    MPKI:0.00
PC:42292     Total:62      MisBP:0   MisRate:0.00%    MPKI:0.00
PC:42296     Total:62      MisBP:0   MisRate:0.00%    MPKI:0.00
PC:188c2     Total:252412      MisBP:0   MisRate:0.00%    MPKI:0.00
PC:4229c     Total:130      MisBP:0   MisRate:0.00%    MPKI:0.00
PC:2da26     Total:91      MisBP:0   MisRate:0.00%    MPKI:0.00
PC:84fba     Total:15      MisBP:0   MisRate:0.00%    MPKI:0.00
PC:31bf8     Total:870      MisBP:0   MisRate:0.00%    MPKI:0.00
PC:84fac     Total:16      MisBP:0   MisRate:0.00%    MPKI:0.00
PC:32dda     Total:100      MisBP:0   MisRate:0.00%    MPKI:0.00
PC:32ddc     Total:100      MisBP:0   MisRate:0.00%    MPKI:0.00
PC:31c00     Total:564      MisBP:0   MisRate:0.00%    MPKI:0.00
PC:84fb4     Total:15      MisBP:0   MisRate:0.00%    MPKI:0.00
PC:32de0     Total:99      MisBP:0   MisRate:0.00%    MPKI:0.00
PC:32de2     Total:99      MisBP:0   MisRate:0.00%    MPKI:0.00
PC:31c06     Total:577      MisBP:0   MisRate:0.00%    MPKI:0.00
PC:32d62     Total:136      MisBP:0   MisRate:0.00%    MPKI:0.00
PC:32de6     Total:99      MisBP:0   MisRate:0.00%    MPKI:0.00
PC:32dea     Total:99      MisBP:0   MisRate:0.00%    MPKI:0.00
PC:32dee     Total:99      MisBP:0   MisRate:0.00%    MPKI:0.00
PC:31c12     Total:576      MisBP:0   MisRate:0.00%    MPKI:0.00
PC:84fc6     Total:15      MisBP:0   MisRate:0.00%    MPKI:0.00
PC:32df0     Total:98      MisBP:0   MisRate:0.00%    MPKI:0.00
PC:3313a     Total:5      MisBP:0   MisRate:0.00%    MPKI:0.00
PC:7c0cc     Total:12      MisBP:0   MisRate:0.00%    MPKI:0.00
PC:7c0f8     Total:21      MisBP:0   MisRate:0.00%    MPKI:0.00
PC:99078     Total:103      MisBP:0   MisRate:0.00%    MPKI:0.00
PC:3efb0     Total:67      MisBP:0   MisRate:0.00%    MPKI:0.00
PC:334de     Total:237      MisBP:0   MisRate:0.00%    MPKI:0.00
PC:334fa     Total:24      MisBP:0   MisRate:0.00%    MPKI:0.00
PC:1c2c6     Total:4374      MisBP:0   MisRate:0.00%    MPKI:0.00
PC:99054     Total:103      MisBP:0   MisRate:0.00%    MPKI:0.00
PC:99058     Total:103      MisBP:0   MisRate:0.00%    MPKI:0.00
PC:9905c     Total:103      MisBP:0   MisRate:0.00%    MPKI:0.00
PC:99066     Total:103      MisBP:0   MisRate:0.00%    MPKI:0.00
PC:99070     Total:103      MisBP:0   MisRate:0.00%    MPKI:0.00
PC:99074     Total:103      MisBP:0   MisRate:0.00%    MPKI:0.00
PC:155d6     Total:122066      MisBP:0   MisRate:0.00%    MPKI:0.00
PC:3233c     Total:422      MisBP:0   MisRate:0.00%    MPKI:0.00
PC:856f0     Total:69      MisBP:0   MisRate:0.00%    MPKI:0.00
PC:33518     Total:6      MisBP:0   MisRate:0.00%    MPKI:0.00
PC:32340     Total:259      MisBP:0   MisRate:0.00%    MPKI:0.00
PC:856f4     Total:23      MisBP:0   MisRate:0.00%    MPKI:0.00
PC:3351c     Total:6      MisBP:0   MisRate:0.00%    MPKI:0.00
PC:3350a     Total:10      MisBP:0   MisRate:0.00%    MPKI:0.00
PC:33512     Total:6      MisBP:0   MisRate:0.00%    MPKI:0.00
PC:33868     Total:174      MisBP:0   MisRate:0.00%    MPKI:0.00
PC:1560e     Total:50040      MisBP:0   MisRate:0.00%    MPKI:0.00
PC:7c936     Total:1302      MisBP:0   MisRate:0.00%    MPKI:0.00
PC:155fa     Total:50531      MisBP:0   MisRate:0.00%    MPKI:0.00
PC:3efd4     Total:51      MisBP:0   MisRate:0.00%    MPKI:0.00
PC:7c93e     Total:416      MisBP:0   MisRate:0.00%    MPKI:0.00
PC:15602     Total:50046      MisBP:0   MisRate:0.00%    MPKI:0.00
PC:3efdc     Total:51      MisBP:0   MisRate:0.00%    MPKI:0.00
PC:7c944     Total:367      MisBP:0   MisRate:0.00%    MPKI:0.00
PC:15608     Total:50040      MisBP:0   MisRate:0.00%    MPKI:0.00
PC:3efe2     Total:51      MisBP:0   MisRate:0.00%    MPKI:0.00
PC:7c94a     Total:1152      MisBP:0   MisRate:0.00%    MPKI:0.00
PC:3386c     Total:174      MisBP:0   MisRate:0.00%    MPKI:0.00
PC:3efe8     Total:83      MisBP:0   MisRate:0.00%    MPKI:0.00
PC:7c8f8     Total:488      MisBP:0   MisRate:0.00%    MPKI:0.00
PC:155bc     Total:128690      MisBP:0   MisRate:0.00%    MPKI:0.00
PC:3ef96     Total:32      MisBP:0   MisRate:0.00%    MPKI:0.00
PC:7c904     Total:361      MisBP:0   MisRate:0.00%    MPKI:0.00
PC:3efa2     Total:32      MisBP:0   MisRate:0.00%    MPKI:0.00
PC:7c908     Total:361      MisBP:0   MisRate:0.00%    MPKI:0.00
PC:155cc     Total:122081      MisBP:0   MisRate:0.00%    MPKI:0.00
PC:3efa6     Total:47      MisBP:0   MisRate:0.00%    MPKI:0.00
PC:329fe     Total:4      MisBP:0   MisRate:0.00%    MPKI:0.00
PC:329ee     Total:4      MisBP:0   MisRate:0.00%    MPKI:0.00
PC:329f0     Total:4      MisBP:0   MisRate:0.00%    MPKI:0.00
PC:329f2     Total:4      MisBP:0   MisRate:0.00%    MPKI:0.00
PC:47268     Total:3      MisBP:0   MisRate:0.00%    MPKI:0.00
PC:329f6     Total:4      MisBP:0   MisRate:0.00%    MPKI:0.00
PC:4726c     Total:30      MisBP:0   MisRate:0.00%    MPKI:0.00
PC:329f8     Total:4      MisBP:0   MisRate:0.00%    MPKI:0.00
PC:329fa     Total:4      MisBP:0   MisRate:0.00%    MPKI:0.00
PC:47270     Total:3      MisBP:0   MisRate:0.00%    MPKI:0.00
PC:329fc     Total:4      MisBP:0   MisRate:0.00%    MPKI:0.00
PC:329ec     Total:4      MisBP:0   MisRate:0.00%    MPKI:0.00
PC:47274     Total:3      MisBP:0   MisRate:0.00%    MPKI:0.00
PC:33056     Total:13      MisBP:0   MisRate:0.00%    MPKI:0.00
PC:32d52     Total:136      MisBP:0   MisRate:0.00%    MPKI:0.00
PC:84f2a     Total:29      MisBP:0   MisRate:0.00%    MPKI:0.00
PC:32d56     Total:136      MisBP:0   MisRate:0.00%    MPKI:0.00
PC:32d5a     Total:136      MisBP:0   MisRate:0.00%    MPKI:0.00
PC:32d5e     Total:136      MisBP:0   MisRate:0.00%    MPKI:0.00
PC:31b82     Total:8709      MisBP:0   MisRate:0.00%    MPKI:0.00
PC:84f36     Total:29      MisBP:0   MisRate:0.00%    MPKI:0.00
PC:338a4     Total:80      MisBP:0   MisRate:0.00%    MPKI:0.00
PC:3386e     Total:174      MisBP:0   MisRate:0.00%    MPKI:0.00
PC:33870     Total:174      MisBP:0   MisRate:0.00%    MPKI:0.00
PC:33874     Total:174      MisBP:0   MisRate:0.00%    MPKI:0.00
PC:33878     Total:172      MisBP:0   MisRate:0.00%    MPKI:0.00
PC:3387a     Total:172      MisBP:0   MisRate:0.00%    MPKI:0.00
PC:3387c     Total:172      MisBP:0   MisRate:0.00%    MPKI:0.00
PC:3389a     Total:158      MisBP:0   MisRate:0.00%    MPKI:0.00
PC:3389c     Total:158      MisBP:0   MisRate:0.00%    MPKI:0.00
PC:338a2     Total:80      MisBP:0   MisRate:0.00%    MPKI:0.00
PC:317aa     Total:241      MisBP:0   MisRate:0.00%    MPKI:0.00
PC:338a8     Total:80      MisBP:0   MisRate:0.00%    MPKI:0.00
PC:338ac     Total:80      MisBP:0   MisRate:0.00%    MPKI:0.00
PC:338ae     Total:80      MisBP:0   MisRate:0.00%    MPKI:0.00
PC:338b0     Total:4      MisBP:0   MisRate:0.00%    MPKI:0.00
PC:338b4     Total:4      MisBP:0   MisRate:0.00%    MPKI:0.00
PC:338b8     Total:4      MisBP:0   MisRate:0.00%    MPKI:0.00
PC:338ba     Total:4      MisBP:0   MisRate:0.00%    MPKI:0.00
PC:329e8     Total:4      MisBP:0   MisRate:0.00%    MPKI:0.00
PC:329ea     Total:4      MisBP:0   MisRate:0.00%    MPKI:0.00
PC:3217c     Total:38      MisBP:0   MisRate:0.00%    MPKI:0.00
PC:32160     Total:33      MisBP:0   MisRate:0.00%    MPKI:0.00
PC:32164     Total:33      MisBP:0   MisRate:0.00%    MPKI:0.00
PC:32168     Total:1      MisBP:0   MisRate:0.00%    MPKI:0.00
PC:3216a     Total:38      MisBP:0   MisRate:0.00%    MPKI:0.00
PC:3216c     Total:38      MisBP:0   MisRate:0.00%    MPKI:0.00
PC:3216e     Total:38      MisBP:0   MisRate:0.00%    MPKI:0.00
PC:32172     Total:38      MisBP:0   MisRate:0.00%    MPKI:0.00
PC:32174     Total:38      MisBP:0   MisRate:0.00%    MPKI:0.00
PC:32176     Total:38      MisBP:0   MisRate:0.00%    MPKI:0.00
PC:3217a     Total:38      MisBP:0   MisRate:0.00%    MPKI:0.00
PC:3215e     Total:33      MisBP:0   MisRate:0.00%    MPKI:0.00
PC:3217e     Total:38      MisBP:0   MisRate:0.00%    MPKI:0.00
PC:32180     Total:35      MisBP:0   MisRate:0.00%    MPKI:0.00
PC:32182     Total:35      MisBP:0   MisRate:0.00%    MPKI:0.00
PC:32184     Total:35      MisBP:0   MisRate:0.00%    MPKI:0.00
PC:32188     Total:58      MisBP:0   MisRate:0.00%    MPKI:0.00
PC:3218a     Total:58      MisBP:0   MisRate:0.00%    MPKI:0.00
PC:3218c     Total:58      MisBP:0   MisRate:0.00%    MPKI:0.00
PC:32190     Total:58      MisBP:0   MisRate:0.00%    MPKI:0.00
PC:32192     Total:58      MisBP:0   MisRate:0.00%    MPKI:0.00
PC:3213c     Total:17      MisBP:0   MisRate:0.00%    MPKI:0.00
PC:36fb8     Total:114      MisBP:0   MisRate:0.00%    MPKI:0.00
PC:36fba     Total:114      MisBP:0   MisRate:0.00%    MPKI:0.00
PC:600a6     Total:25      MisBP:0   MisRate:0.00%    MPKI:0.00
PC:36fbc     Total:111      MisBP:0   MisRate:0.00%    MPKI:0.00
PC:36fbe     Total:109      MisBP:0   MisRate:0.00%    MPKI:0.00
PC:600aa     Total:25      MisBP:0   MisRate:0.00%    MPKI:0.00
PC:32134     Total:17      MisBP:0   MisRate:0.00%    MPKI:0.00
PC:32136     Total:17      MisBP:0   MisRate:0.00%    MPKI:0.00
PC:32138     Total:17      MisBP:0   MisRate:0.00%    MPKI:0.00
PC:3213a     Total:17      MisBP:0   MisRate:0.00%    MPKI:0.00
PC:32194     Total:78      MisBP:0   MisRate:0.00%    MPKI:0.00
PC:3213e     Total:17      MisBP:0   MisRate:0.00%    MPKI:0.00
PC:32140     Total:12      MisBP:0   MisRate:0.00%    MPKI:0.00
PC:32144     Total:44      MisBP:0   MisRate:0.00%    MPKI:0.00
PC:32148     Total:44      MisBP:0   MisRate:0.00%    MPKI:0.00
PC:3214c     Total:44      MisBP:0   MisRate:0.00%    MPKI:0.00
PC:32150     Total:44      MisBP:0   MisRate:0.00%    MPKI:0.00
PC:32154     Total:33      MisBP:0   MisRate:0.00%    MPKI:0.00
PC:32158     Total:33      MisBP:0   MisRate:0.00%    MPKI:0.00
PC:3215a     Total:33      MisBP:0   MisRate:0.00%    MPKI:0.00
PC:5de9e     Total:5      MisBP:0   MisRate:0.00%    MPKI:0.00
PC:1a818     Total:28      MisBP:0   MisRate:0.00%    MPKI:0.00
PC:1a81c     Total:28      MisBP:0   MisRate:0.00%    MPKI:0.00
PC:1a81e     Total:28      MisBP:0   MisRate:0.00%    MPKI:0.00
PC:1a820     Total:28      MisBP:0   MisRate:0.00%    MPKI:0.00
PC:1a824     Total:28      MisBP:0   MisRate:0.00%    MPKI:0.00
PC:1a826     Total:28      MisBP:0   MisRate:0.00%    MPKI:0.00
PC:1a828     Total:28      MisBP:0   MisRate:0.00%    MPKI:0.00
PC:1a82a     Total:28      MisBP:0   MisRate:0.00%    MPKI:0.00
PC:5de98     Total:30      MisBP:0   MisRate:0.00%    MPKI:0.00
PC:5de9a     Total:5      MisBP:0   MisRate:0.00%    MPKI:0.00
PC:1a814     Total:28      MisBP:0   MisRate:0.00%    MPKI:0.00
PC:5dea2     Total:5      MisBP:0   MisRate:0.00%    MPKI:0.00
PC:5dea6     Total:5      MisBP:0   MisRate:0.00%    MPKI:0.00
PC:5dea8     Total:5      MisBP:0   MisRate:0.00%    MPKI:0.00
PC:5deaa     Total:5      MisBP:0   MisRate:0.00%    MPKI:0.00
PC:5deae     Total:5      MisBP:0   MisRate:0.00%    MPKI:0.00
PC:5deb2     Total:5      MisBP:0   MisRate:0.00%    MPKI:0.00
PC:5deb4     Total:5      MisBP:0   MisRate:0.00%    MPKI:0.00
PC:5deb8     Total:5      MisBP:0   MisRate:0.00%    MPKI:0.00
PC:5deba     Total:5      MisBP:0   MisRate:0.00%    MPKI:0.00
PC:47dca     Total:44      MisBP:0   MisRate:0.00%    MPKI:0.00
PC:32198     Total:78      MisBP:0   MisRate:0.00%    MPKI:0.00
PC:3219a     Total:78      MisBP:0   MisRate:0.00%    MPKI:0.00
PC:3219c     Total:77      MisBP:0   MisRate:0.00%    MPKI:0.00
PC:3219e     Total:77      MisBP:0   MisRate:0.00%    MPKI:0.00
PC:321a0     Total:77      MisBP:0   MisRate:0.00%    MPKI:0.00
PC:321a4     Total:77      MisBP:0   MisRate:0.00%    MPKI:0.00
PC:321a8     Total:61      MisBP:0   MisRate:0.00%    MPKI:0.00
PC:321ae     Total:58      MisBP:0   MisRate:0.00%    MPKI:0.00
PC:321b0     Total:58      MisBP:0   MisRate:0.00%    MPKI:0.00
PC:600a2     Total:15      MisBP:0   MisRate:0.00%    MPKI:0.00
PC:47dce     Total:92      MisBP:0   MisRate:0.00%    MPKI:0.00
PC:47df8     Total:62      MisBP:0   MisRate:0.00%    MPKI:0.00
PC:47dfc     Total:62      MisBP:0   MisRate:0.00%    MPKI:0.00
PC:47e4a     Total:121      MisBP:0   MisRate:0.00%    MPKI:0.00
PC:1a800     Total:28      MisBP:0   MisRate:0.00%    MPKI:0.00
PC:1a804     Total:28      MisBP:0   MisRate:0.00%    MPKI:0.00
PC:1a808     Total:28      MisBP:0   MisRate:0.00%    MPKI:0.00
PC:1a80c     Total:28      MisBP:0   MisRate:0.00%    MPKI:0.00
PC:1a810     Total:28      MisBP:0   MisRate:0.00%    MPKI:0.00
PC:387c8     Total:9      MisBP:0   MisRate:0.00%    MPKI:0.00
PC:6188a     Total:34      MisBP:0   MisRate:0.00%    MPKI:0.00
PC:6188e     Total:34      MisBP:0   MisRate:0.00%    MPKI:0.00
PC:387a2     Total:15      MisBP:0   MisRate:0.00%    MPKI:0.00
PC:61892     Total:34      MisBP:0   MisRate:0.00%    MPKI:0.00
PC:387a6     Total:15      MisBP:0   MisRate:0.00%    MPKI:0.00
PC:61896     Total:34      MisBP:0   MisRate:0.00%    MPKI:0.00
PC:387aa     Total:15      MisBP:0   MisRate:0.00%    MPKI:0.00
PC:387b4     Total:14      MisBP:0   MisRate:0.00%    MPKI:0.00
PC:387be     Total:14      MisBP:0   MisRate:0.00%    MPKI:0.00
PC:387c2     Total:9      MisBP:0   MisRate:0.00%    MPKI:0.00
PC:3879c     Total:15      MisBP:0   MisRate:0.00%    MPKI:0.00
PC:387cc     Total:9      MisBP:0   MisRate:0.00%    MPKI:0.00
PC:387ce     Total:9      MisBP:0   MisRate:0.00%    MPKI:0.00
PC:618be     Total:34      MisBP:0   MisRate:0.00%    MPKI:0.00
PC:387d2     Total:9      MisBP:0   MisRate:0.00%    MPKI:0.00
PC:387d6     Total:9      MisBP:0   MisRate:0.00%    MPKI:0.00
PC:387d8     Total:9      MisBP:0   MisRate:0.00%    MPKI:0.00
PC:618c6     Total:64      MisBP:0   MisRate:0.00%    MPKI:0.00
PC:387da     Total:9      MisBP:0   MisRate:0.00%    MPKI:0.00
PC:618ca     Total:5      MisBP:0   MisRate:0.00%    MPKI:0.00
PC:38788     Total:15      MisBP:0   MisRate:0.00%    MPKI:0.00
PC:6185a     Total:75      MisBP:0   MisRate:0.00%    MPKI:0.00
PC:6185e     Total:75      MisBP:0   MisRate:0.00%    MPKI:0.00
PC:38772     Total:32      MisBP:0   MisRate:0.00%    MPKI:0.00
PC:61866     Total:75      MisBP:0   MisRate:0.00%    MPKI:0.00
PC:3877a     Total:28      MisBP:0   MisRate:0.00%    MPKI:0.00
PC:3877c     Total:28      MisBP:0   MisRate:0.00%    MPKI:0.00
PC:3877e     Total:28      MisBP:0   MisRate:0.00%    MPKI:0.00
PC:38780     Total:15      MisBP:0   MisRate:0.00%    MPKI:0.00
PC:38784     Total:15      MisBP:0   MisRate:0.00%    MPKI:0.00
PC:61874     Total:124      MisBP:0   MisRate:0.00%    MPKI:0.00
PC:387de     Total:9      MisBP:0   MisRate:0.00%    MPKI:0.00
PC:3878a     Total:15      MisBP:0   MisRate:0.00%    MPKI:0.00
PC:36a0a     Total:76      MisBP:0   MisRate:0.00%    MPKI:0.00
PC:36a0e     Total:76      MisBP:0   MisRate:0.00%    MPKI:0.00
PC:36a12     Total:76      MisBP:0   MisRate:0.00%    MPKI:0.00
PC:36a16     Total:76      MisBP:0   MisRate:0.00%    MPKI:0.00
PC:36a1a     Total:76      MisBP:0   MisRate:0.00%    MPKI:0.00
PC:36a1e     Total:96      MisBP:0   MisRate:0.00%    MPKI:0.00
PC:36a20     Total:96      MisBP:0   MisRate:0.00%    MPKI:0.00
PC:36a22     Total:96      MisBP:0   MisRate:0.00%    MPKI:0.00
PC:5e6da     Total:13      MisBP:0   MisRate:0.00%    MPKI:0.00
PC:5e6a8     Total:14      MisBP:0   MisRate:0.00%    MPKI:0.00
PC:5e6aa     Total:14      MisBP:0   MisRate:0.00%    MPKI:0.00
PC:5e6ae     Total:14      MisBP:0   MisRate:0.00%    MPKI:0.00
PC:5e6b2     Total:13      MisBP:0   MisRate:0.00%    MPKI:0.00
PC:5e6b4     Total:13      MisBP:0   MisRate:0.00%    MPKI:0.00
PC:5e6b8     Total:13      MisBP:0   MisRate:0.00%    MPKI:0.00
PC:5e6bc     Total:13      MisBP:0   MisRate:0.00%    MPKI:0.00
PC:5e6d0     Total:10      MisBP:0   MisRate:0.00%    MPKI:0.00
PC:5e6d2     Total:10      MisBP:0   MisRate:0.00%    MPKI:0.00
PC:5e6d6     Total:13      MisBP:0   MisRate:0.00%    MPKI:0.00
PC:5e6a4     Total:14      MisBP:0   MisRate:0.00%    MPKI:0.00
PC:5e6dc     Total:39      MisBP:0   MisRate:0.00%    MPKI:0.00
PC:32940     Total:452      MisBP:0   MisRate:0.00%    MPKI:0.00
PC:36fb0     Total:121      MisBP:0   MisRate:0.00%    MPKI:0.00
PC:6009c     Total:35      MisBP:0   MisRate:0.00%    MPKI:0.00
PC:36fb2     Total:121      MisBP:0   MisRate:0.00%    MPKI:0.00
PC:6009e     Total:15      MisBP:0   MisRate:0.00%    MPKI:0.00
PC:36fb4     Total:116      MisBP:0   MisRate:0.00%    MPKI:0.00
PC:600a0     Total:15      MisBP:0   MisRate:0.00%    MPKI:0.00
PC:36fb6     Total:115      MisBP:0   MisRate:0.00%    MPKI:0.00
PC:618e4     Total:17      MisBP:0   MisRate:0.00%    MPKI:0.00
PC:387e0     Total:9      MisBP:0   MisRate:0.00%    MPKI:0.00
PC:618ce     Total:5      MisBP:0   MisRate:0.00%    MPKI:0.00
PC:387e2     Total:9      MisBP:0   MisRate:0.00%    MPKI:0.00
PC:387e4     Total:9      MisBP:0   MisRate:0.00%    MPKI:0.00
PC:618d4     Total:13      MisBP:0   MisRate:0.00%    MPKI:0.00
PC:387e8     Total:9      MisBP:0   MisRate:0.00%    MPKI:0.00
PC:387ea     Total:9      MisBP:0   MisRate:0.00%    MPKI:0.00
PC:387ee     Total:9      MisBP:0   MisRate:0.00%    MPKI:0.00
PC:618dc     Total:12      MisBP:0   MisRate:0.00%    MPKI:0.00
PC:5debc     Total:5      MisBP:0   MisRate:0.00%    MPKI:0.00
PC:387f8     Total:9      MisBP:0   MisRate:0.00%    MPKI:0.00
PC:618e8     Total:17      MisBP:0   MisRate:0.00%    MPKI:0.00
PC:387fc     Total:9      MisBP:0   MisRate:0.00%    MPKI:0.00
PC:5e690     Total:15      MisBP:0   MisRate:0.00%    MPKI:0.00
PC:5e694     Total:45      MisBP:0   MisRate:0.00%    MPKI:0.00
PC:5e696     Total:15      MisBP:0   MisRate:0.00%    MPKI:0.00
PC:5e69a     Total:15      MisBP:0   MisRate:0.00%    MPKI:0.00
PC:5e69e     Total:15      MisBP:0   MisRate:0.00%    MPKI:0.00
PC:5e6a2     Total:15      MisBP:0   MisRate:0.00%    MPKI:0.00
PC:2e418     Total:331      MisBP:0   MisRate:0.00%    MPKI:0.00
PC:19b9c     Total:36      MisBP:0   MisRate:0.00%    MPKI:0.00
PC:192ae     Total:82092      MisBP:0   MisRate:0.00%    MPKI:0.00
PC:42c88     Total:31      MisBP:0   MisRate:0.00%    MPKI:0.00
PC:2e414     Total:331      MisBP:0   MisRate:0.00%    MPKI:0.00
PC:192b0     Total:82092      MisBP:0   MisRate:0.00%    MPKI:0.00
PC:42c8a     Total:31      MisBP:0   MisRate:0.00%    MPKI:0.00
PC:2e416     Total:331      MisBP:0   MisRate:0.00%    MPKI:0.00
PC:19ba0     Total:36      MisBP:0   MisRate:0.00%    MPKI:0.00
PC:192b2     Total:77745      MisBP:0   MisRate:0.00%    MPKI:0.00
PC:42c8c     Total:31      MisBP:0   MisRate:0.00%    MPKI:0.00
PC:2e412     Total:331      MisBP:0   MisRate:0.00%    MPKI:0.00
PC:19ba2     Total:36      MisBP:0   MisRate:0.00%    MPKI:0.00
PC:2e41a     Total:319      MisBP:0   MisRate:0.00%    MPKI:0.00
PC:42c90     Total:31      MisBP:0   MisRate:0.00%    MPKI:0.00
PC:2e41c     Total:319      MisBP:0   MisRate:0.00%    MPKI:0.00
PC:192b8     Total:78211      MisBP:0   MisRate:0.00%    MPKI:0.00
PC:42c92     Total:31      MisBP:0   MisRate:0.00%    MPKI:0.00
PC:2e420     Total:319      MisBP:0   MisRate:0.00%    MPKI:0.00
PC:192bc     Total:78211      MisBP:0   MisRate:0.00%    MPKI:0.00
PC:42c96     Total:1      MisBP:0   MisRate:0.00%    MPKI:0.00
PC:19b90     Total:60      MisBP:0   MisRate:0.00%    MPKI:0.00
PC:2f494     Total:69      MisBP:0   MisRate:0.00%    MPKI:0.00
PC:2f498     Total:69      MisBP:0   MisRate:0.00%    MPKI:0.00
PC:2f49c     Total:69      MisBP:0   MisRate:0.00%    MPKI:0.00
PC:2f4aa     Total:69      MisBP:0   MisRate:0.00%    MPKI:0.00
PC:2f4ae     Total:69      MisBP:0   MisRate:0.00%    MPKI:0.00
PC:2f4b6     Total:69      MisBP:0   MisRate:0.00%    MPKI:0.00
PC:2ed24     Total:119      MisBP:0   MisRate:0.00%    MPKI:0.00
PC:2ed2c     Total:127      MisBP:0   MisRate:0.00%    MPKI:0.00
PC:2ed30     Total:127      MisBP:0   MisRate:0.00%    MPKI:0.00
PC:2e406     Total:331      MisBP:0   MisRate:0.00%    MPKI:0.00
PC:2e422     Total:319      MisBP:0   MisRate:0.00%    MPKI:0.00
PC:2e408     Total:331      MisBP:0   MisRate:0.00%    MPKI:0.00
PC:192a4     Total:135227      MisBP:0   MisRate:0.00%    MPKI:0.00
PC:42c7e     Total:54      MisBP:0   MisRate:0.00%    MPKI:0.00
PC:2e40c     Total:331      MisBP:0   MisRate:0.00%    MPKI:0.00
PC:19b96     Total:488      MisBP:0   MisRate:0.00%    MPKI:0.00
PC:192a8     Total:135151      MisBP:0   MisRate:0.00%    MPKI:0.00
PC:42c82     Total:31      MisBP:0   MisRate:0.00%    MPKI:0.00
PC:2e40e     Total:331      MisBP:0   MisRate:0.00%    MPKI:0.00
PC:42c84     Total:31      MisBP:0   MisRate:0.00%    MPKI:0.00
PC:2e64a     Total:179      MisBP:0   MisRate:0.00%    MPKI:0.00
PC:19dbe     Total:22      MisBP:0   MisRate:0.00%    MPKI:0.00
PC:2e638     Total:216      MisBP:0   MisRate:0.00%    MPKI:0.00
PC:2e63e     Total:199      MisBP:0   MisRate:0.00%    MPKI:0.00
PC:19dc8     Total:19      MisBP:0   MisRate:0.00%    MPKI:0.00
PC:2e640     Total:179      MisBP:0   MisRate:0.00%    MPKI:0.00
PC:2e644     Total:179      MisBP:0   MisRate:0.00%    MPKI:0.00
PC:2e646     Total:179      MisBP:0   MisRate:0.00%    MPKI:0.00
PC:19dd0     Total:19      MisBP:0   MisRate:0.00%    MPKI:0.00
PC:42ebc     Total:2      MisBP:0   MisRate:0.00%    MPKI:0.00
PC:2e648     Total:179      MisBP:0   MisRate:0.00%    MPKI:0.00
PC:2e634     Total:216      MisBP:0   MisRate:0.00%    MPKI:0.00
PC:19dd4     Total:19      MisBP:0   MisRate:0.00%    MPKI:0.00
PC:194e6     Total:625      MisBP:0   MisRate:0.00%    MPKI:0.00
PC:42ec0     Total:2      MisBP:0   MisRate:0.00%    MPKI:0.00
PC:2e650     Total:256      MisBP:0   MisRate:0.00%    MPKI:0.00
PC:19dda     Total:19      MisBP:0   MisRate:0.00%    MPKI:0.00
PC:42ec6     Total:2      MisBP:0   MisRate:0.00%    MPKI:0.00
PC:2e652     Total:256      MisBP:0   MisRate:0.00%    MPKI:0.00
PC:2e654     Total:241      MisBP:0   MisRate:0.00%    MPKI:0.00
PC:19dde     Total:18      MisBP:0   MisRate:0.00%    MPKI:0.00
PC:2e620     Total:1380      MisBP:0   MisRate:0.00%    MPKI:0.00
PC:19bac     Total:34      MisBP:0   MisRate:0.00%    MPKI:0.00
PC:2e426     Total:319      MisBP:0   MisRate:0.00%    MPKI:0.00
PC:19bb0     Total:67      MisBP:0   MisRate:0.00%    MPKI:0.00
PC:2e42a     Total:319      MisBP:0   MisRate:0.00%    MPKI:0.00
PC:19bb4     Total:33      MisBP:0   MisRate:0.00%    MPKI:0.00
PC:2e42e     Total:319      MisBP:0   MisRate:0.00%    MPKI:0.00
PC:2e432     Total:319      MisBP:0   MisRate:0.00%    MPKI:0.00
PC:19bbc     Total:33      MisBP:0   MisRate:0.00%    MPKI:0.00
PC:2e61c     Total:1380      MisBP:0   MisRate:0.00%    MPKI:0.00
PC:2f490     Total:69      MisBP:0   MisRate:0.00%    MPKI:0.00
PC:19dac     Total:22      MisBP:0   MisRate:0.00%    MPKI:0.00
PC:2e624     Total:244      MisBP:0   MisRate:0.00%    MPKI:0.00
PC:19dae     Total:22      MisBP:0   MisRate:0.00%    MPKI:0.00
PC:2e628     Total:244      MisBP:0   MisRate:0.00%    MPKI:0.00
PC:19db2     Total:22      MisBP:0   MisRate:0.00%    MPKI:0.00
PC:2e62e     Total:232      MisBP:0   MisRate:0.00%    MPKI:0.00
PC:19db8     Total:22      MisBP:0   MisRate:0.00%    MPKI:0.00
PC:19dba     Total:22      MisBP:0   MisRate:0.00%    MPKI:0.00
PC:2e632     Total:216      MisBP:0   MisRate:0.00%    MPKI:0.00
PC:1cf18     Total:6      MisBP:0   MisRate:0.00%    MPKI:0.00
PC:31780     Total:64      MisBP:0   MisRate:0.00%    MPKI:0.00
PC:1cf0a     Total:8      MisBP:0   MisRate:0.00%    MPKI:0.00
PC:31782     Total:529      MisBP:0   MisRate:0.00%    MPKI:0.00
PC:1cf0c     Total:8      MisBP:0   MisRate:0.00%    MPKI:0.00
PC:1cf0e     Total:8      MisBP:0   MisRate:0.00%    MPKI:0.00
PC:31786     Total:1176      MisBP:0   MisRate:0.00%    MPKI:0.00
PC:3178a     Total:587      MisBP:0   MisRate:0.00%    MPKI:0.00
PC:1cf14     Total:8      MisBP:0   MisRate:0.00%    MPKI:0.00
PC:3178c     Total:587      MisBP:0   MisRate:0.00%    MPKI:0.00
PC:3178e     Total:587      MisBP:0   MisRate:0.00%    MPKI:0.00
PC:5def2     Total:35      MisBP:0   MisRate:0.00%    MPKI:0.00
PC:31792     Total:95      MisBP:0   MisRate:0.00%    MPKI:0.00
PC:1cf1c     Total:6      MisBP:0   MisRate:0.00%    MPKI:0.00
PC:31794     Total:95      MisBP:0   MisRate:0.00%    MPKI:0.00
PC:31796     Total:95      MisBP:0   MisRate:0.00%    MPKI:0.00
PC:1cf20     Total:6      MisBP:0   MisRate:0.00%    MPKI:0.00
PC:3179a     Total:80      MisBP:0   MisRate:0.00%    MPKI:0.00
PC:32240     Total:7      MisBP:0   MisRate:0.00%    MPKI:0.00
PC:47e14     Total:55      MisBP:0   MisRate:0.00%    MPKI:0.00
PC:47e22     Total:55      MisBP:0   MisRate:0.00%    MPKI:0.00
PC:5deda     Total:4      MisBP:0   MisRate:0.00%    MPKI:0.00
PC:5dec0     Total:3      MisBP:0   MisRate:0.00%    MPKI:0.00
PC:5dec4     Total:3      MisBP:0   MisRate:0.00%    MPKI:0.00
PC:5dec8     Total:3      MisBP:0   MisRate:0.00%    MPKI:0.00
PC:5decc     Total:4      MisBP:0   MisRate:0.00%    MPKI:0.00
PC:5dece     Total:4      MisBP:0   MisRate:0.00%    MPKI:0.00
PC:5ded0     Total:4      MisBP:0   MisRate:0.00%    MPKI:0.00
PC:5ded2     Total:4      MisBP:0   MisRate:0.00%    MPKI:0.00
PC:5ded4     Total:4      MisBP:0   MisRate:0.00%    MPKI:0.00
PC:5ded6     Total:4      MisBP:0   MisRate:0.00%    MPKI:0.00
PC:5ded8     Total:4      MisBP:0   MisRate:0.00%    MPKI:0.00
PC:47e26     Total:55      MisBP:0   MisRate:0.00%    MPKI:0.00
PC:5dedc     Total:4      MisBP:0   MisRate:0.00%    MPKI:0.00
PC:5dede     Total:4      MisBP:0   MisRate:0.00%    MPKI:0.00
PC:5dee0     Total:4      MisBP:0   MisRate:0.00%    MPKI:0.00
PC:5dee2     Total:4      MisBP:0   MisRate:0.00%    MPKI:0.00
PC:5dee4     Total:4      MisBP:0   MisRate:0.00%    MPKI:0.00
PC:5dee6     Total:2      MisBP:0   MisRate:0.00%    MPKI:0.00
PC:5deea     Total:7      MisBP:0   MisRate:0.00%    MPKI:0.00
PC:5deee     Total:7      MisBP:0   MisRate:0.00%    MPKI:0.00
PC:5def0     Total:7      MisBP:0   MisRate:0.00%    MPKI:0.00
PC:30548     Total:138      MisBP:0   MisRate:0.00%    MPKI:0.00
PC:1a740     Total:47      MisBP:0   MisRate:0.00%    MPKI:0.00
PC:1a742     Total:47      MisBP:0   MisRate:0.00%    MPKI:0.00
PC:1a744     Total:47      MisBP:0   MisRate:0.00%    MPKI:0.00
PC:1a746     Total:47      MisBP:0   MisRate:0.00%    MPKI:0.00
PC:1bcc8     Total:26      MisBP:0   MisRate:0.00%    MPKI:0.00
PC:3053e     Total:138      MisBP:0   MisRate:0.00%    MPKI:0.00
PC:1bccc     Total:26      MisBP:0   MisRate:0.00%    MPKI:0.00
PC:30542     Total:138      MisBP:0   MisRate:0.00%    MPKI:0.00
PC:1bcd0     Total:26      MisBP:0   MisRate:0.00%    MPKI:0.00
PC:1bcd2     Total:26      MisBP:0   MisRate:0.00%    MPKI:0.00
PC:2fb06     Total:90      MisBP:0   MisRate:0.00%    MPKI:0.00
PC:1bcda     Total:26      MisBP:0   MisRate:0.00%    MPKI:0.00
PC:1bce2     Total:26      MisBP:0   MisRate:0.00%    MPKI:0.00
PC:1bce6     Total:26      MisBP:0   MisRate:0.00%    MPKI:0.00
PC:2dd12     Total:538      MisBP:0   MisRate:0.00%    MPKI:0.00
PC:2dd18     Total:817      MisBP:0   MisRate:0.00%    MPKI:0.00
PC:2f444     Total:60      MisBP:0   MisRate:0.00%    MPKI:0.00
PC:2f44c     Total:56      MisBP:0   MisRate:0.00%    MPKI:0.00
PC:2f450     Total:290      MisBP:0   MisRate:0.00%    MPKI:0.00
PC:2f454     Total:290      MisBP:0   MisRate:0.00%    MPKI:0.00
PC:2fafc     Total:43      MisBP:0   MisRate:0.00%    MPKI:0.00
PC:47e34     Total:55      MisBP:0   MisRate:0.00%    MPKI:0.00
PC:47e38     Total:55      MisBP:0   MisRate:0.00%    MPKI:0.00
PC:47e3c     Total:55      MisBP:0   MisRate:0.00%    MPKI:0.00
PC:2faee     Total:50      MisBP:0   MisRate:0.00%    MPKI:0.00
PC:2faf0     Total:50      MisBP:0   MisRate:0.00%    MPKI:0.00
PC:2faf2     Total:50      MisBP:0   MisRate:0.00%    MPKI:0.00
PC:2faf4     Total:50      MisBP:0   MisRate:0.00%    MPKI:0.00
PC:2faf6     Total:50      MisBP:0   MisRate:0.00%    MPKI:0.00
PC:2fafa     Total:43      MisBP:0   MisRate:0.00%    MPKI:0.00
PC:3876c     Total:24      MisBP:0   MisRate:0.00%    MPKI:0.00
PC:2fafe     Total:42      MisBP:0   MisRate:0.00%    MPKI:0.00
PC:2fb0a     Total:113      MisBP:0   MisRate:0.00%    MPKI:0.00
PC:2fb0c     Total:113      MisBP:0   MisRate:0.00%    MPKI:0.00
PC:2fb10     Total:29      MisBP:0   MisRate:0.00%    MPKI:0.00
PC:2fb12     Total:2      MisBP:0   MisRate:0.00%    MPKI:0.00
PC:2fb14     Total:50      MisBP:0   MisRate:0.00%    MPKI:0.00
PC:2fb18     Total:5      MisBP:0   MisRate:0.00%    MPKI:0.00
PC:2fb00     Total:180      MisBP:0   MisRate:0.00%    MPKI:0.00
PC:2fb04     Total:90      MisBP:0   MisRate:0.00%    MPKI:0.00
PC:27536     Total:53      MisBP:0   MisRate:0.00%    MPKI:0.00
PC:4190a     Total:477      MisBP:0   MisRate:0.00%    MPKI:0.00
PC:47fb6     Total:53      MisBP:0   MisRate:0.00%    MPKI:0.00
PC:796f0     Total:132      MisBP:0   MisRate:0.00%    MPKI:0.00
PC:2751a     Total:280      MisBP:0   MisRate:0.00%    MPKI:0.00
PC:2751e     Total:280      MisBP:0   MisRate:0.00%    MPKI:0.00
PC:27522     Total:280      MisBP:0   MisRate:0.00%    MPKI:0.00
PC:27526     Total:280      MisBP:0   MisRate:0.00%    MPKI:0.00
PC:2752c     Total:53      MisBP:0   MisRate:0.00%    MPKI:0.00
PC:27530     Total:53      MisBP:0   MisRate:0.00%    MPKI:0.00
PC:3bda8     Total:25      MisBP:0   MisRate:0.00%    MPKI:0.00
PC:79b3e     Total:5      MisBP:0   MisRate:0.00%    MPKI:0.00
PC:27540     Total:50      MisBP:0   MisRate:0.00%    MPKI:0.00
PC:3bdb6     Total:10      MisBP:0   MisRate:0.00%    MPKI:0.00
PC:7971a     Total:21      MisBP:0   MisRate:0.00%    MPKI:0.00
PC:27542     Total:50      MisBP:0   MisRate:0.00%    MPKI:0.00
PC:3bdbc     Total:10      MisBP:0   MisRate:0.00%    MPKI:0.00
PC:27548     Total:50      MisBP:0   MisRate:0.00%    MPKI:0.00
PC:3bdc0     Total:7      MisBP:0   MisRate:0.00%    MPKI:0.00
PC:2754c     Total:50      MisBP:0   MisRate:0.00%    MPKI:0.00
PC:3bdc2     Total:7      MisBP:0   MisRate:0.00%    MPKI:0.00
PC:79920     Total:3      MisBP:0   MisRate:0.00%    MPKI:0.00
PC:798f0     Total:3      MisBP:0   MisRate:0.00%    MPKI:0.00
PC:798f4     Total:3      MisBP:0   MisRate:0.00%    MPKI:0.00
PC:798f8     Total:3      MisBP:0   MisRate:0.00%    MPKI:0.00
PC:7aad4     Total:23      MisBP:0   MisRate:0.00%    MPKI:0.00
PC:27720     Total:10      MisBP:0   MisRate:0.00%    MPKI:0.00
PC:798fc     Total:3      MisBP:0   MisRate:0.00%    MPKI:0.00
PC:79900     Total:3      MisBP:0   MisRate:0.00%    MPKI:0.00
PC:7aadc     Total:23      MisBP:0   MisRate:0.00%    MPKI:0.00
PC:27728     Total:10      MisBP:0   MisRate:0.00%    MPKI:0.00
PC:79918     Total:3      MisBP:0   MisRate:0.00%    MPKI:0.00
PC:79726     Total:21      MisBP:0   MisRate:0.00%    MPKI:0.00
PC:27748     Total:9      MisBP:0   MisRate:0.00%    MPKI:0.00
PC:7992c     Total:4      MisBP:0   MisRate:0.00%    MPKI:0.00
PC:79930     Total:4      MisBP:0   MisRate:0.00%    MPKI:0.00
PC:27758     Total:63      MisBP:0   MisRate:0.00%    MPKI:0.00
PC:beffab7c     Total:4      MisBP:0   MisRate:0.00%    MPKI:0.00
PC:79984     Total:2      MisBP:0   MisRate:0.00%    MPKI:0.00
PC:277ac     Total:124      MisBP:0   MisRate:0.00%    MPKI:0.00
PC:79af6     Total:5      MisBP:0   MisRate:0.00%    MPKI:0.00
PC:79afe     Total:5      MisBP:0   MisRate:0.00%    MPKI:0.00
PC:2dc78     Total:2896      MisBP:0   MisRate:0.00%    MPKI:0.00
PC:16fa0     Total:5449      MisBP:0   MisRate:0.00%    MPKI:0.00
PC:4097a     Total:59      MisBP:0   MisRate:0.00%    MPKI:0.00
PC:478ee     Total:169      MisBP:0   MisRate:0.00%    MPKI:0.00
PC:478f2     Total:152      MisBP:0   MisRate:0.00%    MPKI:0.00
PC:478fa     Total:95      MisBP:0   MisRate:0.00%    MPKI:0.00
PC:47902     Total:61      MisBP:0   MisRate:0.00%    MPKI:0.00
PC:47908     Total:61      MisBP:0   MisRate:0.00%    MPKI:0.00
PC:4790e     Total:11      MisBP:0   MisRate:0.00%    MPKI:0.00
PC:4791e     Total:10      MisBP:0   MisRate:0.00%    MPKI:0.00
PC:47926     Total:93      MisBP:0   MisRate:0.00%    MPKI:0.00
PC:40978     Total:59      MisBP:0   MisRate:0.00%    MPKI:0.00
PC:18b14     Total:3787      MisBP:0   MisRate:0.00%    MPKI:0.00
PC:424ee     Total:39      MisBP:0   MisRate:0.00%    MPKI:0.00
PC:2dc7e     Total:2896      MisBP:0   MisRate:0.00%    MPKI:0.00
PC:424f4     Total:12      MisBP:0   MisRate:0.00%    MPKI:0.00
PC:2dc82     Total:2551      MisBP:0   MisRate:0.00%    MPKI:0.00
PC:18b1e     Total:3784      MisBP:0   MisRate:0.00%    MPKI:0.00
PC:424f8     Total:12      MisBP:0   MisRate:0.00%    MPKI:0.00
PC:2dc88     Total:2551      MisBP:0   MisRate:0.00%    MPKI:0.00
PC:18b24     Total:3784      MisBP:0   MisRate:0.00%    MPKI:0.00
PC:3bdd4     Total:7      MisBP:0   MisRate:0.00%    MPKI:0.00
PC:3bdc4     Total:7      MisBP:0   MisRate:0.00%    MPKI:0.00
PC:27550     Total:50      MisBP:0   MisRate:0.00%    MPKI:0.00
PC:3bdc6     Total:7      MisBP:0   MisRate:0.00%    MPKI:0.00
PC:27554     Total:50      MisBP:0   MisRate:0.00%    MPKI:0.00
PC:27558     Total:50      MisBP:0   MisRate:0.00%    MPKI:0.00
PC:3bdce     Total:7      MisBP:0   MisRate:0.00%    MPKI:0.00
PC:2755c     Total:50      MisBP:0   MisRate:0.00%    MPKI:0.00
PC:3bdd2     Total:7      MisBP:0   MisRate:0.00%    MPKI:0.00
PC:79736     Total:26      MisBP:0   MisRate:0.00%    MPKI:0.00
PC:276fc     Total:770      MisBP:0   MisRate:0.00%    MPKI:0.00
PC:27560     Total:272      MisBP:0   MisRate:0.00%    MPKI:0.00
PC:3bdd6     Total:7      MisBP:0   MisRate:0.00%    MPKI:0.00
PC:30380     Total:136      MisBP:0   MisRate:0.00%    MPKI:0.00
PC:47bbe     Total:389      MisBP:0   MisRate:0.00%    MPKI:0.00
PC:99d96     Total:17      MisBP:0   MisRate:0.00%    MPKI:0.00
PC:47bc2     Total:389      MisBP:0   MisRate:0.00%    MPKI:0.00
PC:99d9a     Total:17      MisBP:0   MisRate:0.00%    MPKI:0.00
PC:16f9c     Total:5218      MisBP:0   MisRate:0.00%    MPKI:0.00
PC:40976     Total:59      MisBP:0   MisRate:0.00%    MPKI:0.00
PC:2f6f2     Total:92      MisBP:0   MisRate:0.00%    MPKI:0.00
PC:3171a     Total:253      MisBP:0   MisRate:0.00%    MPKI:0.00
PC:2f6be     Total:99      MisBP:0   MisRate:0.00%    MPKI:0.00
PC:2f6c2     Total:99      MisBP:0   MisRate:0.00%    MPKI:0.00
PC:2f6c8     Total:99      MisBP:0   MisRate:0.00%    MPKI:0.00
PC:2f6cc     Total:99      MisBP:0   MisRate:0.00%    MPKI:0.00
PC:2f6d2     Total:99      MisBP:0   MisRate:0.00%    MPKI:0.00
PC:2f6d8     Total:94      MisBP:0   MisRate:0.00%    MPKI:0.00
PC:2f6dc     Total:94      MisBP:0   MisRate:0.00%    MPKI:0.00
PC:2f6ea     Total:94      MisBP:0   MisRate:0.00%    MPKI:0.00
PC:2f6ee     Total:92      MisBP:0   MisRate:0.00%    MPKI:0.00
PC:31718     Total:253      MisBP:0   MisRate:0.00%    MPKI:0.00
PC:2f6f6     Total:92      MisBP:0   MisRate:0.00%    MPKI:0.00
PC:2f706     Total:47      MisBP:0   MisRate:0.00%    MPKI:0.00
PC:2f70c     Total:47      MisBP:0   MisRate:0.00%    MPKI:0.00
PC:2f716     Total:46      MisBP:0   MisRate:0.00%    MPKI:0.00
PC:2f71a     Total:46      MisBP:0   MisRate:0.00%    MPKI:0.00
PC:2f71e     Total:46      MisBP:0   MisRate:0.00%    MPKI:0.00
PC:2f722     Total:45      MisBP:0   MisRate:0.00%    MPKI:0.00
PC:317be     Total:31      MisBP:0   MisRate:0.00%    MPKI:0.00
PC:317c2     Total:50      MisBP:0   MisRate:0.00%    MPKI:0.00
PC:31700     Total:114      MisBP:0   MisRate:0.00%    MPKI:0.00
PC:1cf34     Total:5      MisBP:0   MisRate:0.00%    MPKI:0.00
PC:317ae     Total:326      MisBP:0   MisRate:0.00%    MPKI:0.00
PC:1cf38     Total:5      MisBP:0   MisRate:0.00%    MPKI:0.00
PC:317b2     Total:186      MisBP:0   MisRate:0.00%    MPKI:0.00
PC:1cf3c     Total:5      MisBP:0   MisRate:0.00%    MPKI:0.00
PC:317b4     Total:186      MisBP:0   MisRate:0.00%    MPKI:0.00
PC:317b8     Total:40      MisBP:0   MisRate:0.00%    MPKI:0.00
PC:317bc     Total:40      MisBP:0   MisRate:0.00%    MPKI:0.00
PC:2f6ba     Total:161      MisBP:0   MisRate:0.00%    MPKI:0.00
PC:316fe     Total:145      MisBP:0   MisRate:0.00%    MPKI:0.00
PC:317c6     Total:47      MisBP:0   MisRate:0.00%    MPKI:0.00
PC:31702     Total:114      MisBP:0   MisRate:0.00%    MPKI:0.00
PC:31706     Total:247      MisBP:0   MisRate:0.00%    MPKI:0.00
PC:3170a     Total:256      MisBP:0   MisRate:0.00%    MPKI:0.00
PC:3170c     Total:256      MisBP:0   MisRate:0.00%    MPKI:0.00
PC:3170e     Total:256      MisBP:0   MisRate:0.00%    MPKI:0.00
PC:31710     Total:256      MisBP:0   MisRate:0.00%    MPKI:0.00
PC:31712     Total:254      MisBP:0   MisRate:0.00%    MPKI:0.00
PC:31714     Total:254      MisBP:0   MisRate:0.00%    MPKI:0.00
PC:31716     Total:253      MisBP:0   MisRate:0.00%    MPKI:0.00
PC:20160     Total:11      MisBP:0   MisRate:0.00%    MPKI:0.00
PC:72328     Total:223      MisBP:0   MisRate:0.00%    MPKI:0.00
PC:7232a     Total:223      MisBP:0   MisRate:0.00%    MPKI:0.00
PC:7232c     Total:223      MisBP:0   MisRate:0.00%    MPKI:0.00
PC:72330     Total:189      MisBP:0   MisRate:0.00%    MPKI:0.00
PC:20158     Total:11      MisBP:0   MisRate:0.00%    MPKI:0.00
PC:2015a     Total:66      MisBP:0   MisRate:0.00%    MPKI:0.00
PC:72334     Total:177      MisBP:0   MisRate:0.00%    MPKI:0.00
PC:2015c     Total:11      MisBP:0   MisRate:0.00%    MPKI:0.00
PC:72336     Total:177      MisBP:0   MisRate:0.00%    MPKI:0.00
PC:72338     Total:177      MisBP:0   MisRate:0.00%    MPKI:0.00
PC:317fa     Total:56      MisBP:0   MisRate:0.00%    MPKI:0.00
PC:7233a     Total:177      MisBP:0   MisRate:0.00%    MPKI:0.00
PC:7233e     Total:177      MisBP:0   MisRate:0.00%    MPKI:0.00
PC:3d248     Total:968      MisBP:0   MisRate:0.00%    MPKI:0.00
PC:3d24c     Total:968      MisBP:0   MisRate:0.00%    MPKI:0.00
PC:3d26c     Total:314      MisBP:0   MisRate:0.00%    MPKI:0.00
PC:373f8     Total:52      MisBP:0   MisRate:0.00%    MPKI:0.00
PC:373fc     Total:52      MisBP:0   MisRate:0.00%    MPKI:0.00
PC:798d4     Total:27      MisBP:0   MisRate:0.00%    MPKI:0.00
PC:beffbca8     Total:1      MisBP:0   MisRate:0.00%    MPKI:0.00
PC:317dc     Total:26      MisBP:0   MisRate:0.00%    MPKI:0.00
PC:317c8     Total:47      MisBP:0   MisRate:0.00%    MPKI:0.00
PC:317ca     Total:47      MisBP:0   MisRate:0.00%    MPKI:0.00
PC:317cc     Total:47      MisBP:0   MisRate:0.00%    MPKI:0.00
PC:317ce     Total:47      MisBP:0   MisRate:0.00%    MPKI:0.00
PC:317d0     Total:47      MisBP:0   MisRate:0.00%    MPKI:0.00
PC:317d2     Total:47      MisBP:0   MisRate:0.00%    MPKI:0.00
PC:317d4     Total:26      MisBP:0   MisRate:0.00%    MPKI:0.00
PC:317d6     Total:26      MisBP:0   MisRate:0.00%    MPKI:0.00
PC:317da     Total:26      MisBP:0   MisRate:0.00%    MPKI:0.00
PC:424fe     Total:12      MisBP:0   MisRate:0.00%    MPKI:0.00
PC:317e0     Total:64      MisBP:0   MisRate:0.00%    MPKI:0.00
PC:317e4     Total:64      MisBP:0   MisRate:0.00%    MPKI:0.00
PC:317ea     Total:57      MisBP:0   MisRate:0.00%    MPKI:0.00
PC:317ec     Total:56      MisBP:0   MisRate:0.00%    MPKI:0.00
PC:317ee     Total:56      MisBP:0   MisRate:0.00%    MPKI:0.00
PC:317f0     Total:56      MisBP:0   MisRate:0.00%    MPKI:0.00
PC:317f2     Total:56      MisBP:0   MisRate:0.00%    MPKI:0.00
PC:317f4     Total:56      MisBP:0   MisRate:0.00%    MPKI:0.00
PC:317f6     Total:56      MisBP:0   MisRate:0.00%    MPKI:0.00
PC:41804     Total:47      MisBP:0   MisRate:0.00%    MPKI:0.00
PC:1bd30     Total:153      MisBP:0   MisRate:0.00%    MPKI:0.00
PC:1bd34     Total:153      MisBP:0   MisRate:0.00%    MPKI:0.00
PC:1bd36     Total:153      MisBP:0   MisRate:0.00%    MPKI:0.00
PC:1bd3a     Total:153      MisBP:0   MisRate:0.00%    MPKI:0.00
PC:1bd3e     Total:5      MisBP:0   MisRate:0.00%    MPKI:0.00
PC:1b8f4     Total:262      MisBP:0   MisRate:0.00%    MPKI:0.00
PC:3016a     Total:5      MisBP:0   MisRate:0.00%    MPKI:0.00
PC:1b8f8     Total:262      MisBP:0   MisRate:0.00%    MPKI:0.00
PC:417fe     Total:47      MisBP:0   MisRate:0.00%    MPKI:0.00
PC:41802     Total:47      MisBP:0   MisRate:0.00%    MPKI:0.00
PC:1bd2c     Total:154      MisBP:0   MisRate:0.00%    MPKI:0.00
PC:41808     Total:47      MisBP:0   MisRate:0.00%    MPKI:0.00
PC:4180a     Total:47      MisBP:0   MisRate:0.00%    MPKI:0.00
PC:4180e     Total:47      MisBP:0   MisRate:0.00%    MPKI:0.00
PC:41812     Total:47      MisBP:0   MisRate:0.00%    MPKI:0.00
PC:41814     Total:6      MisBP:0   MisRate:0.00%    MPKI:0.00
PC:41816     Total:6      MisBP:0   MisRate:0.00%    MPKI:0.00
PC:4181a     Total:6      MisBP:0   MisRate:0.00%    MPKI:0.00
PC:4181e     Total:6      MisBP:0   MisRate:0.00%    MPKI:0.00
PC:41822     Total:6      MisBP:0   MisRate:0.00%    MPKI:0.00
PC:1bd0c     Total:197      MisBP:0   MisRate:0.00%    MPKI:0.00
PC:1bc6a     Total:350      MisBP:0   MisRate:0.00%    MPKI:0.00
PC:1bc6c     Total:350      MisBP:0   MisRate:0.00%    MPKI:0.00
PC:1bc70     Total:350      MisBP:0   MisRate:0.00%    MPKI:0.00
PC:1bc74     Total:297      MisBP:0   MisRate:0.00%    MPKI:0.00
PC:1bc76     Total:1757      MisBP:0   MisRate:0.00%    MPKI:0.00
PC:1bcec     Total:199      MisBP:0   MisRate:0.00%    MPKI:0.00
PC:1bcf0     Total:199      MisBP:0   MisRate:0.00%    MPKI:0.00
PC:1bcf8     Total:199      MisBP:0   MisRate:0.00%    MPKI:0.00
PC:1bd02     Total:197      MisBP:0   MisRate:0.00%    MPKI:0.00
PC:1bd06     Total:197      MisBP:0   MisRate:0.00%    MPKI:0.00
PC:41344     Total:12      MisBP:0   MisRate:0.00%    MPKI:0.00
PC:1bd0e     Total:197      MisBP:0   MisRate:0.00%    MPKI:0.00
PC:1bd10     Total:197      MisBP:0   MisRate:0.00%    MPKI:0.00
PC:1bd14     Total:197      MisBP:0   MisRate:0.00%    MPKI:0.00
PC:1bd16     Total:194      MisBP:0   MisRate:0.00%    MPKI:0.00
PC:1bd1a     Total:154      MisBP:0   MisRate:0.00%    MPKI:0.00
PC:1bd1e     Total:154      MisBP:0   MisRate:0.00%    MPKI:0.00
PC:1bd22     Total:154      MisBP:0   MisRate:0.00%    MPKI:0.00
PC:1bd26     Total:154      MisBP:0   MisRate:0.00%    MPKI:0.00
PC:1bd2a     Total:154      MisBP:0   MisRate:0.00%    MPKI:0.00
PC:30fa8     Total:205      MisBP:0   MisRate:0.00%    MPKI:0.00
PC:30f84     Total:151      MisBP:0   MisRate:0.00%    MPKI:0.00
PC:30f88     Total:151      MisBP:0   MisRate:0.00%    MPKI:0.00
PC:30f8a     Total:151      MisBP:0   MisRate:0.00%    MPKI:0.00
PC:30f90     Total:187      MisBP:0   MisRate:0.00%    MPKI:0.00
PC:30f92     Total:187      MisBP:0   MisRate:0.00%    MPKI:0.00
PC:30f96     Total:161      MisBP:0   MisRate:0.00%    MPKI:0.00
PC:30f9c     Total:161      MisBP:0   MisRate:0.00%    MPKI:0.00
PC:30f9e     Total:161      MisBP:0   MisRate:0.00%    MPKI:0.00
PC:30fa2     Total:161      MisBP:0   MisRate:0.00%    MPKI:0.00
PC:30fa6     Total:213      MisBP:0   MisRate:0.00%    MPKI:0.00
PC:30f82     Total:151      MisBP:0   MisRate:0.00%    MPKI:0.00
PC:30fac     Total:205      MisBP:0   MisRate:0.00%    MPKI:0.00
PC:61842     Total:77      MisBP:0   MisRate:0.00%    MPKI:0.00
PC:38756     Total:26      MisBP:0   MisRate:0.00%    MPKI:0.00
PC:3875a     Total:26      MisBP:0   MisRate:0.00%    MPKI:0.00
[...]
PC:16138     Total:25438      MisBP:5492   MisRate:21.59%    MPKI:0.02
PC:1add0     Total:48485      MisBP:5528   MisRate:11.40%    MPKI:0.02
PC:1927e     Total:39508      MisBP:5643   MisRate:14.28%    MPKI:0.02
PC:47b58     Total:42867      MisBP:5665   MisRate:13.22%    MPKI:0.02
PC:1c15c     Total:53079      MisBP:5665   MisRate:10.67%    MPKI:0.02
PC:3f4a2     Total:29890      MisBP:5701   MisRate:19.07%    MPKI:0.02
PC:513c2     Total:42814      MisBP:5741   MisRate:13.41%    MPKI:0.02
PC:2d56e     Total:111151      MisBP:5751   MisRate:5.17%    MPKI:0.02
PC:15e30     Total:19584      MisBP:5752   MisRate:29.37%    MPKI:0.02
PC:2e3e4     Total:77705      MisBP:5755   MisRate:7.41%    MPKI:0.02
PC:2ccb2     Total:41468      MisBP:5776   MisRate:13.93%    MPKI:0.02
PC:2d74a     Total:41147      MisBP:5790   MisRate:14.07%    MPKI:0.02
PC:192c0     Total:67113      MisBP:5820   MisRate:8.67%    MPKI:0.02
PC:187b4     Total:245602      MisBP:5821   MisRate:2.37%    MPKI:0.02
PC:40936     Total:19984      MisBP:5832   MisRate:29.18%    MPKI:0.02
PC:199dc     Total:53133      MisBP:5849   MisRate:11.01%    MPKI:0.02
PC:2fd66     Total:82303      MisBP:5856   MisRate:7.12%    MPKI:0.02
PC:18df0     Total:47134      MisBP:5861   MisRate:12.43%    MPKI:0.02
PC:1c55c     Total:9036      MisBP:5865   MisRate:64.91%    MPKI:0.02
PC:1c0b6     Total:38627      MisBP:5931   MisRate:15.35%    MPKI:0.02
PC:3bfc4     Total:68589      MisBP:5949   MisRate:8.67%    MPKI:0.02
PC:31ba6     Total:137648      MisBP:5970   MisRate:4.34%    MPKI:0.02
PC:158ca     Total:51313      MisBP:6018   MisRate:11.73%    MPKI:0.02
PC:17eae     Total:34952      MisBP:6044   MisRate:17.29%    MPKI:0.02
PC:3cff0     Total:20862      MisBP:6068   MisRate:29.09%    MPKI:0.02
PC:18a14     Total:36888      MisBP:6159   MisRate:16.70%    MPKI:0.02
PC:16198     Total:22388      MisBP:6174   MisRate:27.58%    MPKI:0.02
PC:17eb8     Total:29204      MisBP:6206   MisRate:21.25%    MPKI:0.02
PC:2d64a     Total:62317      MisBP:6256   MisRate:10.04%    MPKI:0.02
PC:3c64a     Total:33069      MisBP:6267   MisRate:18.95%    MPKI:0.02
PC:286bc     Total:24541      MisBP:6300   MisRate:25.67%    MPKI:0.02
PC:513b0     Total:47918      MisBP:6308   MisRate:13.16%    MPKI:0.02
PC:1596a     Total:100005      MisBP:6322   MisRate:6.32%    MPKI:0.02
PC:15942     Total:53884      MisBP:6344   MisRate:11.77%    MPKI:0.02
PC:18fce     Total:52137      MisBP:6365   MisRate:12.21%    MPKI:0.02
PC:18f26     Total:45437      MisBP:6407   MisRate:14.10%    MPKI:0.02
PC:1adcc     Total:56529      MisBP:6420   MisRate:11.36%    MPKI:0.02
PC:1ac4c     Total:89761      MisBP:6447   MisRate:7.18%    MPKI:0.02
PC:2d644     Total:34590      MisBP:6519   MisRate:18.85%    MPKI:0.02
PC:3f4d2     Total:24704      MisBP:6534   MisRate:26.45%    MPKI:0.02
PC:19a52     Total:36368      MisBP:6569   MisRate:18.06%    MPKI:0.02
PC:15bea     Total:42372      MisBP:6590   MisRate:15.55%    MPKI:0.02
PC:3c5cc     Total:35070      MisBP:6599   MisRate:18.82%    MPKI:0.02
PC:2ccd0     Total:135034      MisBP:6620   MisRate:4.90%    MPKI:0.02
PC:31b32     Total:119800      MisBP:6644   MisRate:5.55%    MPKI:0.02
PC:192ea     Total:66675      MisBP:6673   MisRate:10.01%    MPKI:0.02
PC:2d588     Total:88923      MisBP:6711   MisRate:7.55%    MPKI:0.02
PC:19a6c     Total:37930      MisBP:6727   MisRate:17.74%    MPKI:0.02
PC:159ce     Total:94605      MisBP:6731   MisRate:7.11%    MPKI:0.02
PC:3c74a     Total:46502      MisBP:6744   MisRate:14.50%    MPKI:0.02
PC:2fd4c     Total:153325      MisBP:6786   MisRate:4.43%    MPKI:0.02
PC:2d5ee     Total:49446      MisBP:6821   MisRate:13.79%    MPKI:0.02
PC:3198a     Total:231063      MisBP:6838   MisRate:2.96%    MPKI:0.02
PC:1b7f0     Total:49782      MisBP:6938   MisRate:13.94%    MPKI:0.02
PC:1c04a     Total:81500      MisBP:7003   MisRate:8.59%    MPKI:0.02
PC:3c298     Total:41424      MisBP:7088   MisRate:17.11%    MPKI:0.02
PC:1c796     Total:126919      MisBP:7147   MisRate:5.63%    MPKI:0.02
PC:15e94     Total:22214      MisBP:7187   MisRate:32.35%    MPKI:0.02
PC:3c264     Total:78853      MisBP:7216   MisRate:9.15%    MPKI:0.02
PC:18eba     Total:42828      MisBP:7230   MisRate:16.88%    MPKI:0.02
PC:2ca44     Total:180582      MisBP:7235   MisRate:4.01%    MPKI:0.02
PC:164b4     Total:31831      MisBP:7245   MisRate:22.76%    MPKI:0.02
PC:2cdc2     Total:134854      MisBP:7247   MisRate:5.37%    MPKI:0.02
PC:2886a     Total:163853      MisBP:7260   MisRate:4.43%    MPKI:0.02
PC:3ec4e     Total:18407      MisBP:7271   MisRate:39.50%    MPKI:0.02
PC:192f6     Total:69036      MisBP:7272   MisRate:10.53%    MPKI:0.02
PC:1accc     Total:42376      MisBP:7406   MisRate:17.48%    MPKI:0.02
PC:3ec3c     Total:48103      MisBP:7419   MisRate:15.42%    MPKI:0.02
PC:47b94     Total:45109      MisBP:7488   MisRate:16.60%    MPKI:0.02
PC:19754     Total:58096      MisBP:7539   MisRate:12.98%    MPKI:0.02
PC:18dfa     Total:65210      MisBP:7618   MisRate:11.68%    MPKI:0.02
PC:2d67a     Total:88871      MisBP:7629   MisRate:8.58%    MPKI:0.02
PC:3ce00     Total:31417      MisBP:7671   MisRate:24.42%    MPKI:0.02
PC:159d4     Total:80003      MisBP:7815   MisRate:9.77%    MPKI:0.03
PC:2cd7e     Total:121822      MisBP:7818   MisRate:6.42%    MPKI:0.03
PC:3e748     Total:31046      MisBP:7910   MisRate:25.48%    MPKI:0.03
PC:47b0c     Total:42648      MisBP:7956   MisRate:18.66%    MPKI:0.03
PC:1882e     Total:124926      MisBP:8038   MisRate:6.43%    MPKI:0.03
PC:2cdee     Total:163356      MisBP:8092   MisRate:4.95%    MPKI:0.03
PC:1c790     Total:111928      MisBP:8151   MisRate:7.28%    MPKI:0.03
PC:17db0     Total:59332      MisBP:8151   MisRate:13.74%    MPKI:0.03
PC:410ee     Total:24395      MisBP:8226   MisRate:33.72%    MPKI:0.03
PC:1acf6     Total:36594      MisBP:8239   MisRate:22.51%    MPKI:0.03
PC:3f4cc     Total:34660      MisBP:8302   MisRate:23.95%    MPKI:0.03
PC:1ad02     Total:39074      MisBP:8383   MisRate:21.45%    MPKI:0.03
PC:15972     Total:92969      MisBP:8411   MisRate:9.05%    MPKI:0.03
PC:2ce48     Total:152467      MisBP:8426   MisRate:5.53%    MPKI:0.03
PC:154b2     Total:190492      MisBP:8435   MisRate:4.43%    MPKI:0.03
PC:2d682     Total:76565      MisBP:8479   MisRate:11.07%    MPKI:0.03
PC:24ccc     Total:105932      MisBP:8481   MisRate:8.01%    MPKI:0.03
PC:47b60     Total:46823      MisBP:8482   MisRate:18.12%    MPKI:0.03
PC:2d7f6     Total:127380      MisBP:8497   MisRate:6.67%    MPKI:0.03
PC:3c7bc     Total:50416      MisBP:8510   MisRate:16.88%    MPKI:0.03
PC:18f84     Total:45136      MisBP:8586   MisRate:19.02%    MPKI:0.03
PC:1973c     Total:55176      MisBP:8623   MisRate:15.63%    MPKI:0.03
PC:190a6     Total:40970      MisBP:8636   MisRate:21.08%    MPKI:0.03
PC:15b50     Total:40180      MisBP:8647   MisRate:21.52%    MPKI:0.03
PC:2e3ec     Total:89671      MisBP:8649   MisRate:9.65%    MPKI:0.03
PC:2e3bc     Total:58721      MisBP:8753   MisRate:14.91%    MPKI:0.03
PC:319c2     Total:84014      MisBP:8982   MisRate:10.69%    MPKI:0.03
PC:15c9c     Total:56270      MisBP:9074   MisRate:16.13%    MPKI:0.03
PC:2d3f2     Total:162646      MisBP:9192   MisRate:5.65%    MPKI:0.03
PC:2d6bc     Total:89518      MisBP:9249   MisRate:10.33%    MPKI:0.03
PC:2cd8e     Total:122559      MisBP:9352   MisRate:7.63%    MPKI:0.03
PC:159e8     Total:81102      MisBP:9365   MisRate:11.55%    MPKI:0.03
PC:3cfa6     Total:136844      MisBP:9368   MisRate:6.85%    MPKI:0.03
PC:3c7ee     Total:55177      MisBP:9513   MisRate:17.24%    MPKI:0.03
PC:3cb1a     Total:38001      MisBP:9561   MisRate:25.16%    MPKI:0.03
PC:2fd1e     Total:160453      MisBP:9606   MisRate:5.99%    MPKI:0.03
PC:2d6cc     Total:73795      MisBP:9713   MisRate:13.16%    MPKI:0.03
PC:199f6     Total:66175      MisBP:9730   MisRate:14.70%    MPKI:0.03
PC:41130     Total:30027      MisBP:9780   MisRate:32.57%    MPKI:0.03
PC:2ca86     Total:200804      MisBP:9791   MisRate:4.88%    MPKI:0.03
PC:17de6     Total:47570      MisBP:9952   MisRate:20.92%    MPKI:0.03
PC:2cda0     Total:136066      MisBP:10020   MisRate:7.36%    MPKI:0.03
PC:1ad06     Total:55844      MisBP:10041   MisRate:17.98%    MPKI:0.03
PC:15c92     Total:67063      MisBP:10058   MisRate:15.00%    MPKI:0.03
PC:3c692     Total:52753      MisBP:10077   MisRate:19.10%    MPKI:0.03
PC:2fd46     Total:125541      MisBP:10090   MisRate:8.04%    MPKI:0.03
PC:2d2c8     Total:27695      MisBP:10097   MisRate:36.46%    MPKI:0.03
PC:1c82c     Total:133760      MisBP:10148   MisRate:7.59%    MPKI:0.03
PC:19614     Total:222406      MisBP:10262   MisRate:4.61%    MPKI:0.03
PC:2fd2c     Total:158940      MisBP:10472   MisRate:6.59%    MPKI:0.03
PC:2d6d0     Total:86390      MisBP:10586   MisRate:12.25%    MPKI:0.03
PC:31996     Total:236234      MisBP:10591   MisRate:4.48%    MPKI:0.03
PC:18bec     Total:536496      MisBP:10613   MisRate:1.98%    MPKI:0.03
PC:3c7e0     Total:68418      MisBP:10637   MisRate:15.55%    MPKI:0.03
PC:2d294     Total:281954      MisBP:10686   MisRate:3.79%    MPKI:0.03
PC:1aca4     Total:70509      MisBP:11098   MisRate:15.74%    MPKI:0.04
PC:28796     Total:167236      MisBP:11113   MisRate:6.65%    MPKI:0.04
PC:2d7fe     Total:110299      MisBP:11145   MisRate:10.10%    MPKI:0.04
PC:306ea     Total:557998      MisBP:11359   MisRate:2.04%    MPKI:0.04
PC:1acd6     Total:79216      MisBP:11441   MisRate:14.44%    MPKI:0.04
PC:3c7b2     Total:69106      MisBP:11493   MisRate:16.63%    MPKI:0.04
PC:17fcc     Total:107658      MisBP:11644   MisRate:10.82%    MPKI:0.04
PC:3bfda     Total:84586      MisBP:11738   MisRate:13.88%    MPKI:0.04
PC:2caae     Total:97629      MisBP:12058   MisRate:12.35%    MPKI:0.04
PC:159ee     Total:71171      MisBP:12506   MisRate:17.57%    MPKI:0.04
PC:156b6     Total:182165      MisBP:12689   MisRate:6.97%    MPKI:0.04
PC:1b830     Total:33609      MisBP:12796   MisRate:38.07%    MPKI:0.04
PC:2d73a     Total:135878      MisBP:12819   MisRate:9.43%    MPKI:0.04
PC:15a08     Total:74765      MisBP:12838   MisRate:17.17%    MPKI:0.04
PC:18e00     Total:191283      MisBP:12936   MisRate:6.76%    MPKI:0.04
PC:3be8e     Total:72918      MisBP:13034   MisRate:17.87%    MPKI:0.04
PC:1acaa     Total:62063      MisBP:13038   MisRate:21.01%    MPKI:0.04
PC:159f8     Total:62668      MisBP:13061   MisRate:20.84%    MPKI:0.04
PC:176c2     Total:84134      MisBP:13062   MisRate:15.53%    MPKI:0.04
PC:15950     Total:61670      MisBP:13164   MisRate:21.35%    MPKI:0.04
PC:2d2be     Total:50919      MisBP:13176   MisRate:25.88%    MPKI:0.04
PC:1b7f4     Total:43374      MisBP:13226   MisRate:30.49%    MPKI:0.04
PC:159fe     Total:65643      MisBP:13255   MisRate:20.19%    MPKI:0.04
PC:2ce78     Total:47946      MisBP:13410   MisRate:27.97%    MPKI:0.04
PC:2d688     Total:90450      MisBP:13414   MisRate:14.83%    MPKI:0.04
PC:14e10     Total:56694      MisBP:13597   MisRate:23.98%    MPKI:0.04
PC:1acb8     Total:55270      MisBP:13646   MisRate:24.69%    MPKI:0.04
PC:18dde     Total:52430      MisBP:13752   MisRate:26.23%    MPKI:0.04
PC:314ce     Total:261448      MisBP:13858   MisRate:5.30%    MPKI:0.04
PC:51358     Total:1199891      MisBP:13924   MisRate:1.16%    MPKI:0.04
PC:1ace0     Total:79767      MisBP:13986   MisRate:17.53%    MPKI:0.05
PC:2f3f4     Total:179818      MisBP:13989   MisRate:7.78%    MPKI:0.05
PC:1aca0     Total:82429      MisBP:14277   MisRate:17.32%    MPKI:0.05
PC:15a0e     Total:86193      MisBP:14342   MisRate:16.64%    MPKI:0.05
PC:1bf82     Total:94386      MisBP:14363   MisRate:15.22%    MPKI:0.05
PC:286ac     Total:229532      MisBP:14503   MisRate:6.32%    MPKI:0.05
PC:1576e     Total:79869      MisBP:14602   MisRate:18.28%    MPKI:0.05
PC:14e64     Total:91255      MisBP:14669   MisRate:16.07%    MPKI:0.05
PC:1acbc     Total:65029      MisBP:14673   MisRate:22.56%    MPKI:0.05
PC:2d47c     Total:78409      MisBP:14701   MisRate:18.75%    MPKI:0.05
PC:306c2     Total:497550      MisBP:14798   MisRate:2.97%    MPKI:0.05
PC:18d72     Total:68557      MisBP:15342   MisRate:22.38%    MPKI:0.05
PC:17e74     Total:50247      MisBP:15767   MisRate:31.38%    MPKI:0.05
PC:18d6a     Total:59564      MisBP:15906   MisRate:26.70%    MPKI:0.05
PC:1c088     Total:51311      MisBP:16000   MisRate:31.18%    MPKI:0.05
PC:319c8     Total:83723      MisBP:16082   MisRate:19.21%    MPKI:0.05
PC:1c77e     Total:76079      MisBP:16484   MisRate:21.67%    MPKI:0.05
PC:2cb22     Total:207620      MisBP:16686   MisRate:8.04%    MPKI:0.05
PC:18d76     Total:76695      MisBP:17245   MisRate:22.49%    MPKI:0.06
PC:14ee6     Total:103792      MisBP:17355   MisRate:16.72%    MPKI:0.06
PC:2ca4a     Total:103563      MisBP:17465   MisRate:16.86%    MPKI:0.06
PC:18f6a     Total:163998      MisBP:17718   MisRate:10.80%    MPKI:0.06
PC:192ac     Total:135151      MisBP:17752   MisRate:13.13%    MPKI:0.06
PC:3bfc6     Total:70533      MisBP:17783   MisRate:25.21%    MPKI:0.06
PC:28788     Total:189780      MisBP:18077   MisRate:9.53%    MPKI:0.06
PC:18d56     Total:90414      MisBP:18103   MisRate:20.02%    MPKI:0.06
PC:2cdc8     Total:157247      MisBP:18258   MisRate:11.61%    MPKI:0.06
PC:288b8     Total:258295      MisBP:18292   MisRate:7.08%    MPKI:0.06
PC:2cd76     Total:125829      MisBP:18443   MisRate:14.66%    MPKI:0.06
PC:2d576     Total:109386      MisBP:18546   MisRate:16.95%    MPKI:0.06
PC:3199e     Total:223602      MisBP:18592   MisRate:8.31%    MPKI:0.06
PC:2e870     Total:183204      MisBP:18864   MisRate:10.30%    MPKI:0.06
PC:14ea4     Total:99865      MisBP:18957   MisRate:18.98%    MPKI:0.06
PC:1c01e     Total:113041      MisBP:19143   MisRate:16.93%    MPKI:0.06
PC:15964     Total:93183      MisBP:19478   MisRate:20.90%    MPKI:0.06
PC:1c1d2     Total:76127      MisBP:19524   MisRate:25.65%    MPKI:0.06
PC:1595a     Total:75122      MisBP:19721   MisRate:26.25%    MPKI:0.06
PC:17dac     Total:69901      MisBP:19755   MisRate:28.26%    MPKI:0.06
PC:1925a     Total:117613      MisBP:20139   MisRate:17.12%    MPKI:0.06
PC:154ac     Total:181840      MisBP:20285   MisRate:11.16%    MPKI:0.07
PC:3cfac     Total:124563      MisBP:20441   MisRate:16.41%    MPKI:0.07
PC:9e50c     Total:582255      MisBP:20466   MisRate:3.51%    MPKI:0.07
PC:2d7ee     Total:242256      MisBP:20502   MisRate:8.46%    MPKI:0.07
PC:1c7d4     Total:70177      MisBP:20757   MisRate:29.58%    MPKI:0.07
PC:2caf6     Total:139742      MisBP:20939   MisRate:14.98%    MPKI:0.07
PC:2ca8c     Total:195817      MisBP:21161   MisRate:10.81%    MPKI:0.07
PC:14f26     Total:108027      MisBP:21278   MisRate:19.70%    MPKI:0.07
PC:30696     Total:543390      MisBP:21440   MisRate:3.95%    MPKI:0.07
PC:1c12c     Total:117908      MisBP:21464   MisRate:18.20%    MPKI:0.07
PC:319bc     Total:217274      MisBP:21513   MisRate:9.90%    MPKI:0.07
PC:15b40     Total:92656      MisBP:21585   MisRate:23.30%    MPKI:0.07
PC:3ca14     Total:172155      MisBP:21660   MisRate:12.58%    MPKI:0.07
PC:14fb8     Total:474746      MisBP:21800   MisRate:4.59%    MPKI:0.07
PC:2cd68     Total:167042      MisBP:21848   MisRate:13.08%    MPKI:0.07
PC:2cb26     Total:217641      MisBP:21974   MisRate:10.10%    MPKI:0.07
PC:1bfe2     Total:189475      MisBP:21974   MisRate:11.60%    MPKI:0.07
PC:2cc64     Total:345815      MisBP:22200   MisRate:6.42%    MPKI:0.07
PC:2cc6c     Total:161678      MisBP:22413   MisRate:13.86%    MPKI:0.07
PC:3bf76     Total:581366      MisBP:22687   MisRate:3.90%    MPKI:0.07
PC:15a1e     Total:69083      MisBP:23029   MisRate:33.34%    MPKI:0.07
PC:2fd58     Total:148407      MisBP:23217   MisRate:15.64%    MPKI:0.07
PC:192e0     Total:133853      MisBP:23486   MisRate:17.55%    MPKI:0.08
PC:2cca2     Total:170041      MisBP:23936   MisRate:14.08%    MPKI:0.08
PC:3ca34     Total:167059      MisBP:24217   MisRate:14.50%    MPKI:0.08
PC:51368     Total:980809      MisBP:24380   MisRate:2.49%    MPKI:0.08
PC:2cd4a     Total:196969      MisBP:25531   MisRate:12.96%    MPKI:0.08
PC:19314     Total:152958      MisBP:25654   MisRate:16.77%    MPKI:0.08
PC:18cde     Total:162545      MisBP:25713   MisRate:15.82%    MPKI:0.08
PC:14fa8     Total:95753      MisBP:25774   MisRate:26.92%    MPKI:0.08
PC:154a2     Total:120150      MisBP:25784   MisRate:21.46%    MPKI:0.08
PC:2d2ae     Total:140485      MisBP:25827   MisRate:18.38%    MPKI:0.08
PC:3c220     Total:323829      MisBP:26350   MisRate:8.14%    MPKI:0.08
PC:14f62     Total:114376      MisBP:26687   MisRate:23.33%    MPKI:0.09
PC:15a16     Total:76514      MisBP:26855   MisRate:35.10%    MPKI:0.09
PC:18d4c     Total:111321      MisBP:27097   MisRate:24.34%    MPKI:0.09
PC:155e6     Total:119837      MisBP:27246   MisRate:22.74%    MPKI:0.09
PC:2cc86     Total:602933      MisBP:27794   MisRate:4.61%    MPKI:0.09
PC:512ba     Total:254397      MisBP:27888   MisRate:10.96%    MPKI:0.09
PC:157ba     Total:79687      MisBP:28163   MisRate:35.34%    MPKI:0.09
PC:3ca0a     Total:204060      MisBP:28451   MisRate:13.94%    MPKI:0.09
PC:2893e     Total:758503      MisBP:29979   MisRate:3.95%    MPKI:0.10
PC:3bf88     Total:92218      MisBP:30141   MisRate:32.68%    MPKI:0.10
PC:306c6     Total:493754      MisBP:30263   MisRate:6.13%    MPKI:0.10
PC:1bfe8     Total:160461      MisBP:30822   MisRate:19.21%    MPKI:0.10
PC:1bf88     Total:82887      MisBP:31260   MisRate:37.71%    MPKI:0.10
PC:3c6e4     Total:121519      MisBP:31427   MisRate:25.86%    MPKI:0.10
PC:2d29e     Total:268606      MisBP:32000   MisRate:11.91%    MPKI:0.10
PC:18d3e     Total:127603      MisBP:32366   MisRate:25.36%    MPKI:0.10
PC:3c73a     Total:200268      MisBP:32820   MisRate:16.39%    MPKI:0.11
PC:3c224     Total:335983      MisBP:33090   MisRate:9.85%    MPKI:0.11
PC:18d34     Total:149883      MisBP:33241   MisRate:22.18%    MPKI:0.11
PC:14fb2     Total:437395      MisBP:34156   MisRate:7.81%    MPKI:0.11
PC:18bb2     Total:245190      MisBP:34631   MisRate:14.12%    MPKI:0.11
PC:156e4     Total:247184      MisBP:34715   MisRate:14.04%    MPKI:0.11
PC:28718     Total:234252      MisBP:34921   MisRate:14.91%    MPKI:0.11
PC:24cc8     Total:121340      MisBP:37889   MisRate:31.23%    MPKI:0.12
PC:84c10     Total:109624      MisBP:38028   MisRate:34.69%    MPKI:0.12
PC:3ca32     Total:260765      MisBP:38258   MisRate:14.67%    MPKI:0.12
PC:28644     Total:254350      MisBP:39393   MisRate:15.49%    MPKI:0.13
PC:156a4     Total:226247      MisBP:41859   MisRate:18.50%    MPKI:0.14
PC:287d4     Total:201391      MisBP:44426   MisRate:22.06%    MPKI:0.14
PC:2ca90     Total:227589      MisBP:44593   MisRate:19.59%    MPKI:0.14
PC:1bfa8     Total:155100      MisBP:45615   MisRate:29.41%    MPKI:0.15
PC:2d2a2     Total:307496      MisBP:50375   MisRate:16.38%    MPKI:0.16
PC:1bfca     Total:188906      MisBP:51679   MisRate:27.36%    MPKI:0.17
PC:18bda     Total:458422      MisBP:51843   MisRate:11.31%    MPKI:0.17
PC:2cc9c     Total:679962      MisBP:55495   MisRate:8.16%    MPKI:0.18
PC:51360     Total:1203855      MisBP:55819   MisRate:4.64%    MPKI:0.18
PC:17694     Total:1427593      MisBP:57014   MisRate:3.99%    MPKI:0.18
PC:188ca     Total:251822      MisBP:58067   MisRate:23.06%    MPKI:0.19
PC:2cc8c     Total:575616      MisBP:59077   MisRate:10.26%    MPKI:0.19
PC:512b6     Total:635106      MisBP:60765   MisRate:9.57%    MPKI:0.20
PC:28602     Total:2870768      MisBP:65957   MisRate:2.30%    MPKI:0.21
PC:18bde     Total:537047      MisBP:71517   MisRate:13.32%    MPKI:0.23
PC:3bf7c     Total:558400      MisBP:83054   MisRate:14.87%    MPKI:0.27
PC:512ac     Total:1034455      MisBP:89586   MisRate:8.66%    MPKI:0.29
PC:1a934     Total:492868      MisBP:139136   MisRate:28.23%    MPKI:0.45
PC:2866a     Total:2835345      MisBP:154992   MisRate:5.47%    MPKI:0.50
Totfetch:626481910  TotInsts:310000003  TotMis : inf%   MPKI : 20.55
=============finish sim!!!!!!=============
Done running SimPoint!
