Global frequency set at 1000000000000 ticks per second
 Register [printBranch()] ExitCallback !!!!!!! 
gem5 Simulator System.  https://www.gem5.org
gem5 is copyrighted software; use the --copyright option for details.

gem5 version 22.0.0.2
gem5 compiled Sep  7 2022 00:42:18
gem5 started Sep  7 2022 06:55:07
gem5 executing on a100, pid 2837268
command line: /data/zxf/gem5/gem5-prof/build/ARM/gem5.fast --outdir=/data/zxf/checkpoint/spec2006/401.bzip2/prof/bzip2_ckp_16 /data/zxf/gem5/gem5-prof/configs/example/se.py --cpu-type O3CPU --cpu-clock 1GHz --num-cpu 1 --l1d-hwp-type=BOPPrefetcher --caches --l2cache --l1i_size 32kB --l1d_size 32kB --l2_size 1MB --l1i_assoc 8 --l1d_assoc 8 --l2_assoc 16 --cacheline_size 64 --mem-type DDR3_2133_8x8 --mem-size 16GB --restore-simpoint-checkpoint -r 16 --checkpoint-dir /data/zxf/checkpoint/spec2006/401.bzip2/ckpt -c bzip2_base.gcc41-64bit -o 'input.source 280'

info: Standard input is not a terminal, disabling listeners.
Resuming from /data/zxf/checkpoint/spec2006/401.bzip2/ckpt/cpt.simpoint_15_inst_354590000000_weight_0.009040_interval_300000000_warmup_10000000
Resuming from SimPoint #15, start_inst:354590000000, weight:0.009040, interval:300000000, warmup:10000000
Switch at curTick count:10000
Switched CPUS @ tick 218639476176000
[(<m5.objects.ArmCPU.ArmAtomicSimpleCPU object at 0x7f823bd59bb0>, <m5.objects.ArmCPU.ArmO3CPU object at 0x7f823bd71e20>)]
switching cpus



+++++++++++++++++++++++++zxf print simpoint+++++++++++++++++++++++++++
Warmed up! Dumping and resetting stats!


=============start sim!!!!!!=============
PC:11f0c     Total:2138      MisBP:0   MisRate:0.00%    MPKI:0.00
PC:11ec2     Total:18528      MisBP:0   MisRate:0.00%    MPKI:0.00
PC:12336     Total:75646      MisBP:0   MisRate:0.00%    MPKI:0.00
PC:11a8c     Total:3309766      MisBP:0   MisRate:0.00%    MPKI:0.00
PC:12300     Total:104889      MisBP:0   MisRate:0.00%    MPKI:0.00
PC:11ec6     Total:18526      MisBP:0   MisRate:0.00%    MPKI:0.00
PC:11a90     Total:3307413      MisBP:0   MisRate:0.00%    MPKI:0.00
PC:12304     Total:127959      MisBP:0   MisRate:0.00%    MPKI:0.00
PC:1233e     Total:89690      MisBP:0   MisRate:0.00%    MPKI:0.00
PC:11a94     Total:3307391      MisBP:0   MisRate:0.00%    MPKI:0.00
PC:12308     Total:127942      MisBP:0   MisRate:0.00%    MPKI:0.00
PC:11ece     Total:8084      MisBP:0   MisRate:0.00%    MPKI:0.00
PC:1237c     Total:190480      MisBP:0   MisRate:0.00%    MPKI:0.00
PC:11ad2     Total:3274161      MisBP:0   MisRate:0.00%    MPKI:0.00
PC:12346     Total:87218      MisBP:0   MisRate:0.00%    MPKI:0.00
PC:122fc     Total:106263      MisBP:0   MisRate:0.00%    MPKI:0.00
PC:12380     Total:183266      MisBP:0   MisRate:0.00%    MPKI:0.00
PC:11ad6     Total:3268301      MisBP:0   MisRate:0.00%    MPKI:0.00
PC:11f10     Total:2119      MisBP:0   MisRate:0.00%    MPKI:0.00
PC:122e8     Total:107472      MisBP:0   MisRate:0.00%    MPKI:0.00
PC:11eae     Total:21018      MisBP:0   MisRate:0.00%    MPKI:0.00
PC:11a5c     Total:3333252      MisBP:0   MisRate:0.00%    MPKI:0.00
PC:12306     Total:127952      MisBP:0   MisRate:0.00%    MPKI:0.00
PC:11ecc     Total:8084      MisBP:0   MisRate:0.00%    MPKI:0.00
PC:123a8     Total:72249      MisBP:0   MisRate:0.00%    MPKI:0.00
PC:11afe     Total:3245694      MisBP:0   MisRate:0.00%    MPKI:0.00
PC:11a46     Total:3342293      MisBP:0   MisRate:0.00%    MPKI:0.00
PC:122f0     Total:106781      MisBP:0   MisRate:0.00%    MPKI:0.00
PC:123ae     Total:71947      MisBP:0   MisRate:0.00%    MPKI:0.00
PC:11eac     Total:21019      MisBP:0   MisRate:0.00%    MPKI:0.00
PC:12382     Total:183220      MisBP:0   MisRate:0.00%    MPKI:0.00
PC:11ad8     Total:3266976      MisBP:0   MisRate:0.00%    MPKI:0.00
PC:11f12     Total:10718      MisBP:0   MisRate:0.00%    MPKI:0.00
PC:123b8     Total:71124      MisBP:0   MisRate:0.00%    MPKI:0.00
PC:1232a     Total:217322      MisBP:0   MisRate:0.00%    MPKI:0.00
PC:11a80     Total:3313230      MisBP:0   MisRate:0.00%    MPKI:0.00
PC:122f4     Total:106481      MisBP:0   MisRate:0.00%    MPKI:0.00
PC:11eba     Total:21050      MisBP:0   MisRate:0.00%    MPKI:0.00
PC:12316     Total:221081      MisBP:0   MisRate:0.00%    MPKI:0.00
PC:12318     Total:220976      MisBP:0   MisRate:0.00%    MPKI:0.00
PC:11a6e     Total:3323694      MisBP:0   MisRate:0.00%    MPKI:0.00
PC:11a3c     Total:3349653      MisBP:0   MisRate:0.00%    MPKI:0.00
PC:122e6     Total:107489      MisBP:0   MisRate:0.00%    MPKI:0.00
PC:11b04     Total:3242814      MisBP:0   MisRate:0.00%    MPKI:0.00
PC:11a76     Total:3323315      MisBP:0   MisRate:0.00%    MPKI:0.00
PC:12322     Total:220046      MisBP:0   MisRate:0.00%    MPKI:0.00
PC:11eb2     Total:21069      MisBP:0   MisRate:0.00%    MPKI:0.00
PC:12324     Total:219810      MisBP:0   MisRate:0.00%    MPKI:0.00
PC:11a7a     Total:3321744      MisBP:0   MisRate:0.00%    MPKI:0.00
PC:122ee     Total:106863      MisBP:0   MisRate:0.00%    MPKI:0.00
PC:11eb4     Total:21063      MisBP:0   MisRate:0.00%    MPKI:0.00
PC:12328     Total:218283      MisBP:0   MisRate:0.00%    MPKI:0.00
PC:11a7e     Total:3321581      MisBP:0   MisRate:0.00%    MPKI:0.00
PC:11a48     Total:3342136      MisBP:0   MisRate:0.00%    MPKI:0.00
PC:11eb8     Total:21050      MisBP:0   MisRate:0.00%    MPKI:0.00
PC:12332     Total:167981      MisBP:0   MisRate:0.00%    MPKI:0.00
PC:11a88     Total:3309979      MisBP:0   MisRate:0.00%    MPKI:0.00
PC:11ac6     Total:3274925      MisBP:0   MisRate:0.00%    MPKI:0.00
PC:12348     Total:87159      MisBP:0   MisRate:0.00%    MPKI:0.00
PC:11f0e     Total:2138      MisBP:0   MisRate:0.00%    MPKI:0.00
PC:11b40     Total:42261      MisBP:0   MisRate:0.00%    MPKI:0.00
PC:11b0a     Total:3242573      MisBP:0   MisRate:0.00%    MPKI:0.00
PC:123b4     Total:71260      MisBP:0   MisRate:0.00%    MPKI:0.00
PC:11b0c     Total:3242528      MisBP:0   MisRate:0.00%    MPKI:0.00
PC:123b6     Total:71194      MisBP:0   MisRate:0.00%    MPKI:0.00
PC:11f7c     Total:138      MisBP:0   MisRate:0.00%    MPKI:0.00
PC:12350     Total:85712      MisBP:0   MisRate:0.00%    MPKI:0.00
PC:11aa6     Total:3299599      MisBP:0   MisRate:0.00%    MPKI:0.00
PC:11ee0     Total:9666      MisBP:0   MisRate:0.00%    MPKI:0.00
PC:11a0e     Total:71904      MisBP:0   MisRate:0.00%    MPKI:0.00
PC:122b8     Total:100146      MisBP:0   MisRate:0.00%    MPKI:0.00
PC:12370     Total:191548      MisBP:0   MisRate:0.00%    MPKI:0.00
PC:11a9e     Total:3300177      MisBP:0   MisRate:0.00%    MPKI:0.00
PC:11f00     Total:9305      MisBP:0   MisRate:0.00%    MPKI:0.00
PC:11b06     Total:3242812      MisBP:0   MisRate:0.00%    MPKI:0.00
PC:123b0     Total:71320      MisBP:0   MisRate:0.00%    MPKI:0.00
PC:11f76     Total:23354      MisBP:0   MisRate:0.00%    MPKI:0.00
PC:11b14     Total:16      MisBP:0   MisRate:0.00%    MPKI:0.00
PC:123be     Total:20227      MisBP:0   MisRate:0.00%    MPKI:0.00
PC:11f84     Total:22392      MisBP:0   MisRate:0.00%    MPKI:0.00
PC:1229e     Total:89107      MisBP:0   MisRate:0.00%    MPKI:0.00
PC:122d4     Total:172518      MisBP:0   MisRate:0.00%    MPKI:0.00
PC:11a2a     Total:118323      MisBP:0   MisRate:0.00%    MPKI:0.00
PC:119f6     Total:263699      MisBP:0   MisRate:0.00%    MPKI:0.00
PC:122a0     Total:89135      MisBP:0   MisRate:0.00%    MPKI:0.00
PC:122d6     Total:172484      MisBP:0   MisRate:0.00%    MPKI:0.00
PC:119fe     Total:256916      MisBP:0   MisRate:0.00%    MPKI:0.00
PC:11f3e     Total:590451      MisBP:0   MisRate:0.00%    MPKI:0.00
PC:12310     Total:126396      MisBP:0   MisRate:0.00%    MPKI:0.00
PC:11a50     Total:3337615      MisBP:0   MisRate:0.00%    MPKI:0.00
PC:122fa     Total:106295      MisBP:0   MisRate:0.00%    MPKI:0.00
PC:11ec0     Total:18528      MisBP:0   MisRate:0.00%    MPKI:0.00
PC:11a6a     Total:3331193      MisBP:0   MisRate:0.00%    MPKI:0.00
PC:11eda     Total:9649      MisBP:0   MisRate:0.00%    MPKI:0.00
PC:11a72     Total:3323448      MisBP:0   MisRate:0.00%    MPKI:0.00
PC:1231c     Total:220515      MisBP:0   MisRate:0.00%    MPKI:0.00
PC:11ee2     Total:9666      MisBP:0   MisRate:0.00%    MPKI:0.00
PC:11f4e     Total:428895      MisBP:0   MisRate:0.00%    MPKI:0.00
PC:122de     Total:91432      MisBP:0   MisRate:0.00%    MPKI:0.00
PC:11a34     Total:3354040      MisBP:0   MisRate:0.00%    MPKI:0.00
PC:1234c     Total:85652      MisBP:0   MisRate:0.00%    MPKI:0.00
PC:122a8     Total:88431      MisBP:0   MisRate:0.00%    MPKI:0.00
PC:122e0     Total:91406      MisBP:0   MisRate:0.00%    MPKI:0.00
PC:11a36     Total:3354028      MisBP:0   MisRate:0.00%    MPKI:0.00
PC:11a38     Total:3354019      MisBP:0   MisRate:0.00%    MPKI:0.00
PC:11a02     Total:239198      MisBP:0   MisRate:0.00%    MPKI:0.00
PC:122ac     Total:88413      MisBP:0   MisRate:0.00%    MPKI:0.00
PC:122e4     Total:107521      MisBP:0   MisRate:0.00%    MPKI:0.00
PC:122ae     Total:100413      MisBP:0   MisRate:0.00%    MPKI:0.00
PC:122ea     Total:107451      MisBP:0   MisRate:0.00%    MPKI:0.00
PC:11a40     Total:3342545      MisBP:0   MisRate:0.00%    MPKI:0.00
PC:11b08     Total:3242807      MisBP:0   MisRate:0.00%    MPKI:0.00
PC:123b2     Total:71293      MisBP:0   MisRate:0.00%    MPKI:0.00
PC:11f78     Total:23329      MisBP:0   MisRate:0.00%    MPKI:0.00
PC:119bc     Total:365790      MisBP:0   MisRate:0.00%    MPKI:0.00
PC:12278     Total:24252      MisBP:0   MisRate:0.00%    MPKI:0.00
PC:119ce     Total:393191      MisBP:0   MisRate:0.00%    MPKI:0.00
PC:12276     Total:24259      MisBP:0   MisRate:0.00%    MPKI:0.00
PC:12274     Total:24451      MisBP:0   MisRate:0.00%    MPKI:0.00
PC:119ca     Total:419001      MisBP:0   MisRate:0.00%    MPKI:0.00
PC:12272     Total:24403      MisBP:0   MisRate:0.00%    MPKI:0.00
PC:119c8     Total:419041      MisBP:0   MisRate:0.00%    MPKI:0.00
PC:119c6     Total:419114      MisBP:0   MisRate:0.00%    MPKI:0.00
PC:1226e     Total:49177      MisBP:0   MisRate:0.00%    MPKI:0.00
PC:119c4     Total:419216      MisBP:0   MisRate:0.00%    MPKI:0.00
PC:1226c     Total:24711      MisBP:0   MisRate:0.00%    MPKI:0.00
PC:119c2     Total:419269      MisBP:0   MisRate:0.00%    MPKI:0.00
PC:12268     Total:11041      MisBP:0   MisRate:0.00%    MPKI:0.00
PC:119be     Total:1747856      MisBP:0   MisRate:0.00%    MPKI:0.00
PC:119d0     Total:393160      MisBP:0   MisRate:0.00%    MPKI:0.00
PC:12264     Total:11042      MisBP:0   MisRate:0.00%    MPKI:0.00
PC:119ba     Total:365873      MisBP:0   MisRate:0.00%    MPKI:0.00
PC:12262     Total:11055      MisBP:0   MisRate:0.00%    MPKI:0.00
PC:119b8     Total:366070      MisBP:0   MisRate:0.00%    MPKI:0.00
PC:12260     Total:11054      MisBP:0   MisRate:0.00%    MPKI:0.00
PC:1225e     Total:11316      MisBP:0   MisRate:0.00%    MPKI:0.00
PC:119b4     Total:529642      MisBP:0   MisRate:0.00%    MPKI:0.00
PC:119b2     Total:530032      MisBP:0   MisRate:0.00%    MPKI:0.00
PC:1225a     Total:11267      MisBP:0   MisRate:0.00%    MPKI:0.00
PC:119b0     Total:546439      MisBP:0   MisRate:0.00%    MPKI:0.00
PC:12256     Total:11486      MisBP:0   MisRate:0.00%    MPKI:0.00
PC:119ac     Total:3829742      MisBP:0   MisRate:0.00%    MPKI:0.00
PC:1237a     Total:190615      MisBP:0   MisRate:0.00%    MPKI:0.00
PC:119e2     Total:319004      MisBP:0   MisRate:0.00%    MPKI:0.00
PC:119f2     Total:274693      MisBP:0   MisRate:0.00%    MPKI:0.00
PC:1229a     Total:22454      MisBP:0   MisRate:0.00%    MPKI:0.00
PC:119f0     Total:285304      MisBP:0   MisRate:0.00%    MPKI:0.00
PC:12298     Total:22455      MisBP:0   MisRate:0.00%    MPKI:0.00
PC:119ee     Total:285339      MisBP:0   MisRate:0.00%    MPKI:0.00
PC:12296     Total:22455      MisBP:0   MisRate:0.00%    MPKI:0.00
PC:12294     Total:22479      MisBP:0   MisRate:0.00%    MPKI:0.00
PC:119ea     Total:299806      MisBP:0   MisRate:0.00%    MPKI:0.00
PC:12292     Total:22481      MisBP:0   MisRate:0.00%    MPKI:0.00
PC:119e8     Total:299857      MisBP:0   MisRate:0.00%    MPKI:0.00
PC:119e6     Total:299981      MisBP:0   MisRate:0.00%    MPKI:0.00
PC:1228e     Total:23043      MisBP:0   MisRate:0.00%    MPKI:0.00
PC:1228c     Total:23044      MisBP:0   MisRate:0.00%    MPKI:0.00
PC:11f0a     Total:2139      MisBP:0   MisRate:0.00%    MPKI:0.00
PC:1228a     Total:23045      MisBP:0   MisRate:0.00%    MPKI:0.00
PC:119e0     Total:334703      MisBP:0   MisRate:0.00%    MPKI:0.00
PC:12288     Total:23047      MisBP:0   MisRate:0.00%    MPKI:0.00
PC:119de     Total:334734      MisBP:0   MisRate:0.00%    MPKI:0.00
PC:12286     Total:22997      MisBP:0   MisRate:0.00%    MPKI:0.00
PC:29278     Total:1      MisBP:0   MisRate:0.00%    MPKI:0.00
PC:119da     Total:350192      MisBP:0   MisRate:0.00%    MPKI:0.00
PC:12282     Total:23042      MisBP:0   MisRate:0.00%    MPKI:0.00
PC:119d8     Total:350220      MisBP:0   MisRate:0.00%    MPKI:0.00
PC:12280     Total:23011      MisBP:0   MisRate:0.00%    MPKI:0.00
PC:119d6     Total:350266      MisBP:0   MisRate:0.00%    MPKI:0.00
PC:119d2     Total:373358      MisBP:0   MisRate:0.00%    MPKI:0.00
PC:1227a     Total:23930      MisBP:0   MisRate:0.00%    MPKI:0.00
PC:11a84     Total:3310064      MisBP:0   MisRate:0.00%    MPKI:0.00
PC:11a42     Total:3342344      MisBP:0   MisRate:0.00%    MPKI:0.00
PC:12354     Total:84275      MisBP:0   MisRate:0.00%    MPKI:0.00
PC:11aaa     Total:3299590      MisBP:0   MisRate:0.00%    MPKI:0.00
PC:1231e     Total:220310      MisBP:0   MisRate:0.00%    MPKI:0.00
PC:11a08     Total:215161      MisBP:0   MisRate:0.00%    MPKI:0.00
PC:122b2     Total:100271      MisBP:0   MisRate:0.00%    MPKI:0.00
PC:12384     Total:182962      MisBP:0   MisRate:0.00%    MPKI:0.00
PC:1234e     Total:85639      MisBP:0   MisRate:0.00%    MPKI:0.00
PC:11f14     Total:10718      MisBP:0   MisRate:0.00%    MPKI:0.00
PC:1230e     Total:126926      MisBP:0   MisRate:0.00%    MPKI:0.00
PC:11a64     Total:3331943      MisBP:0   MisRate:0.00%    MPKI:0.00
PC:11a06     Total:215231      MisBP:0   MisRate:0.00%    MPKI:0.00
PC:122b0     Total:100289      MisBP:0   MisRate:0.00%    MPKI:0.00
PC:1232e     Total:216932      MisBP:0   MisRate:0.00%    MPKI:0.00
PC:122b6     Total:100293      MisBP:0   MisRate:0.00%    MPKI:0.00
PC:122f8     Total:106422      MisBP:0   MisRate:0.00%    MPKI:0.00
PC:11ebe     Total:21050      MisBP:0   MisRate:0.00%    MPKI:0.00
PC:11a12     Total:70101      MisBP:0   MisRate:0.00%    MPKI:0.00
PC:122bc     Total:100131      MisBP:0   MisRate:0.00%    MPKI:0.00
PC:11b10     Total:3242060      MisBP:0   MisRate:0.00%    MPKI:0.00
PC:1232c     Total:217198      MisBP:0   MisRate:0.00%    MPKI:0.00
PC:11a4c     Total:3337838      MisBP:0   MisRate:0.00%    MPKI:0.00
PC:122f6     Total:106386      MisBP:0   MisRate:0.00%    MPKI:0.00
PC:11ebc     Total:21050      MisBP:0   MisRate:0.00%    MPKI:0.00
PC:12366     Total:113093      MisBP:0   MisRate:0.00%    MPKI:0.00
PC:11abc     Total:3290267      MisBP:0   MisRate:0.00%    MPKI:0.00
PC:11ef6     Total:9503      MisBP:0   MisRate:0.00%    MPKI:0.00
PC:11aa2     Total:3300052      MisBP:0   MisRate:0.00%    MPKI:0.00
PC:1230a     Total:127068      MisBP:0   MisRate:0.00%    MPKI:0.00
PC:11a16     Total:350097      MisBP:0   MisRate:0.00%    MPKI:0.00
PC:122c0     Total:175559      MisBP:0   MisRate:0.00%    MPKI:0.00
PC:11aac     Total:3294607      MisBP:0   MisRate:0.00%    MPKI:0.00
PC:11ee6     Total:9662      MisBP:0   MisRate:0.00%    MPKI:0.00
PC:11ede     Total:9667      MisBP:0   MisRate:0.00%    MPKI:0.00
PC:11ed8     Total:8034      MisBP:0   MisRate:0.00%    MPKI:0.00
PC:11a9a     Total:3300244      MisBP:0   MisRate:0.00%    MPKI:0.00
PC:11ed4     Total:8034      MisBP:0   MisRate:0.00%    MPKI:0.00
PC:12342     Total:87190      MisBP:0   MisRate:0.00%    MPKI:0.00
PC:11ed2     Total:8139      MisBP:0   MisRate:0.00%    MPKI:0.00
PC:12340     Total:87280      MisBP:0   MisRate:0.00%    MPKI:0.00
PC:11a96     Total:3303195      MisBP:0   MisRate:0.00%    MPKI:0.00
PC:11a60     Total:3331999      MisBP:0   MisRate:0.00%    MPKI:0.00
PC:11a2c     Total:118318      MisBP:0   MisRate:0.00%    MPKI:0.00
PC:11ed0     Total:8140      MisBP:0   MisRate:0.00%    MPKI:0.00
PC:12312     Total:123737      MisBP:0   MisRate:0.00%    MPKI:0.00
PC:11a68     Total:3331825      MisBP:0   MisRate:0.00%    MPKI:0.00
PC:122c2     Total:175063      MisBP:0   MisRate:0.00%    MPKI:0.00
PC:1230c     Total:126951      MisBP:0   MisRate:0.00%    MPKI:0.00
PC:11a62     Total:3331950      MisBP:0   MisRate:0.00%    MPKI:0.00
PC:11a14     Total:70069      MisBP:0   MisRate:0.00%    MPKI:0.00
PC:11a10     Total:70544      MisBP:0   MisRate:0.00%    MPKI:0.00
PC:122ba     Total:100162      MisBP:0   MisRate:0.00%    MPKI:0.00
PC:11a54     Total:3337435      MisBP:0   MisRate:0.00%    MPKI:0.00
PC:12338     Total:75617      MisBP:0   MisRate:0.00%    MPKI:0.00
PC:11a58     Total:3333592      MisBP:0   MisRate:0.00%    MPKI:0.00
PC:12302     Total:128077      MisBP:0   MisRate:0.00%    MPKI:0.00
PC:1249c     Total:4984      MisBP:0   MisRate:0.00%    MPKI:0.00
PC:12492     Total:4995      MisBP:0   MisRate:0.00%    MPKI:0.00
PC:131ae     Total:1      MisBP:0   MisRate:0.00%    MPKI:0.00
PC:1205a     Total:498      MisBP:0   MisRate:0.00%    MPKI:0.00
PC:12494     Total:4995      MisBP:0   MisRate:0.00%    MPKI:0.00
PC:131b0     Total:1      MisBP:0   MisRate:0.00%    MPKI:0.00
PC:1205c     Total:498      MisBP:0   MisRate:0.00%    MPKI:0.00
PC:12496     Total:4994      MisBP:0   MisRate:0.00%    MPKI:0.00
PC:1205e     Total:498      MisBP:0   MisRate:0.00%    MPKI:0.00
PC:12498     Total:4994      MisBP:0   MisRate:0.00%    MPKI:0.00
PC:131b4     Total:1      MisBP:0   MisRate:0.00%    MPKI:0.00
PC:12060     Total:497      MisBP:0   MisRate:0.00%    MPKI:0.00
PC:1249a     Total:4984      MisBP:0   MisRate:0.00%    MPKI:0.00
PC:131b6     Total:1      MisBP:0   MisRate:0.00%    MPKI:0.00
PC:12062     Total:497      MisBP:0   MisRate:0.00%    MPKI:0.00
PC:12058     Total:498      MisBP:0   MisRate:0.00%    MPKI:0.00
PC:12064     Total:10663      MisBP:0   MisRate:0.00%    MPKI:0.00
PC:1249e     Total:4983      MisBP:0   MisRate:0.00%    MPKI:0.00
PC:12400     Total:3761      MisBP:0   MisRate:0.00%    MPKI:0.00
PC:12402     Total:3761      MisBP:0   MisRate:0.00%    MPKI:0.00
PC:12406     Total:3761      MisBP:0   MisRate:0.00%    MPKI:0.00
PC:1240a     Total:59050      MisBP:0   MisRate:0.00%    MPKI:0.00
PC:1240c     Total:59055      MisBP:0   MisRate:0.00%    MPKI:0.00
PC:1240e     Total:118109      MisBP:0   MisRate:0.00%    MPKI:0.00
PC:12412     Total:59052      MisBP:0   MisRate:0.00%    MPKI:0.00
PC:12414     Total:117585      MisBP:0   MisRate:0.00%    MPKI:0.00
PC:1241a     Total:4092      MisBP:0   MisRate:0.00%    MPKI:0.00
PC:1241c     Total:4092      MisBP:0   MisRate:0.00%    MPKI:0.00
PC:1241e     Total:4092      MisBP:0   MisRate:0.00%    MPKI:0.00
PC:1247e     Total:2781      MisBP:0   MisRate:0.00%    MPKI:0.00
PC:12038     Total:290927      MisBP:0   MisRate:0.00%    MPKI:0.00
PC:1203a     Total:290866      MisBP:0   MisRate:0.00%    MPKI:0.00
PC:12474     Total:4339      MisBP:0   MisRate:0.00%    MPKI:0.00
PC:13190     Total:145      MisBP:0   MisRate:0.00%    MPKI:0.00
PC:1203c     Total:286570      MisBP:0   MisRate:0.00%    MPKI:0.00
PC:13192     Total:145      MisBP:0   MisRate:0.00%    MPKI:0.00
PC:1203e     Total:286540      MisBP:0   MisRate:0.00%    MPKI:0.00
PC:12478     Total:2809      MisBP:0   MisRate:0.00%    MPKI:0.00
PC:13194     Total:145      MisBP:0   MisRate:0.00%    MPKI:0.00
PC:1247a     Total:2791      MisBP:0   MisRate:0.00%    MPKI:0.00
PC:1247c     Total:2791      MisBP:0   MisRate:0.00%    MPKI:0.00
PC:13198     Total:145      MisBP:0   MisRate:0.00%    MPKI:0.00
PC:12044     Total:151670      MisBP:0   MisRate:0.00%    MPKI:0.00
PC:12420     Total:4092      MisBP:0   MisRate:0.00%    MPKI:0.00
PC:12046     Total:151660      MisBP:0   MisRate:0.00%    MPKI:0.00
PC:1319c     Total:1      MisBP:0   MisRate:0.00%    MPKI:0.00
PC:12048     Total:60798      MisBP:0   MisRate:0.00%    MPKI:0.00
PC:131a0     Total:1      MisBP:0   MisRate:0.00%    MPKI:0.00
PC:1204c     Total:60797      MisBP:0   MisRate:0.00%    MPKI:0.00
PC:131a2     Total:1      MisBP:0   MisRate:0.00%    MPKI:0.00
PC:1204e     Total:60795      MisBP:0   MisRate:0.00%    MPKI:0.00
PC:131a6     Total:1      MisBP:0   MisRate:0.00%    MPKI:0.00
PC:12052     Total:60790      MisBP:0   MisRate:0.00%    MPKI:0.00
PC:1248c     Total:5022      MisBP:0   MisRate:0.00%    MPKI:0.00
PC:131aa     Total:1      MisBP:0   MisRate:0.00%    MPKI:0.00
PC:12056     Total:60781      MisBP:0   MisRate:0.00%    MPKI:0.00
PC:12490     Total:4996      MisBP:0   MisRate:0.00%    MPKI:0.00
PC:124d2     Total:5541      MisBP:0   MisRate:0.00%    MPKI:0.00
PC:124b2     Total:1633      MisBP:0   MisRate:0.00%    MPKI:0.00
PC:124b4     Total:1633      MisBP:0   MisRate:0.00%    MPKI:0.00
PC:124b6     Total:1633      MisBP:0   MisRate:0.00%    MPKI:0.00
PC:124b8     Total:1633      MisBP:0   MisRate:0.00%    MPKI:0.00
PC:124ba     Total:1628      MisBP:0   MisRate:0.00%    MPKI:0.00
PC:124bc     Total:1618      MisBP:0   MisRate:0.00%    MPKI:0.00
PC:124be     Total:5816      MisBP:0   MisRate:0.00%    MPKI:0.00
PC:124c0     Total:5504      MisBP:0   MisRate:0.00%    MPKI:0.00
PC:124c4     Total:5504      MisBP:0   MisRate:0.00%    MPKI:0.00
PC:124c6     Total:5504      MisBP:0   MisRate:0.00%    MPKI:0.00
PC:124ca     Total:5504      MisBP:0   MisRate:0.00%    MPKI:0.00
PC:124cc     Total:5504      MisBP:0   MisRate:0.00%    MPKI:0.00
PC:124ce     Total:5503      MisBP:0   MisRate:0.00%    MPKI:0.00
PC:124d0     Total:5542      MisBP:0   MisRate:0.00%    MPKI:0.00
PC:124b0     Total:1634      MisBP:0   MisRate:0.00%    MPKI:0.00
PC:124d6     Total:5430      MisBP:0   MisRate:0.00%    MPKI:0.00
PC:124d8     Total:5452      MisBP:0   MisRate:0.00%    MPKI:0.00
PC:124da     Total:5449      MisBP:0   MisRate:0.00%    MPKI:0.00
PC:124dc     Total:5449      MisBP:0   MisRate:0.00%    MPKI:0.00
PC:124e0     Total:5448      MisBP:0   MisRate:0.00%    MPKI:0.00
PC:124e2     Total:5447      MisBP:0   MisRate:0.00%    MPKI:0.00
PC:124e6     Total:5440      MisBP:0   MisRate:0.00%    MPKI:0.00
PC:124ea     Total:5437      MisBP:0   MisRate:0.00%    MPKI:0.00
PC:124ec     Total:5243      MisBP:0   MisRate:0.00%    MPKI:0.00
PC:124f0     Total:5239      MisBP:0   MisRate:0.00%    MPKI:0.00
PC:124f2     Total:5234      MisBP:0   MisRate:0.00%    MPKI:0.00
PC:124f6     Total:5233      MisBP:0   MisRate:0.00%    MPKI:0.00
PC:124fa     Total:5232      MisBP:0   MisRate:0.00%    MPKI:0.00
PC:1244c     Total:90511      MisBP:0   MisRate:0.00%    MPKI:0.00
PC:12422     Total:4092      MisBP:0   MisRate:0.00%    MPKI:0.00
PC:12424     Total:4085      MisBP:0   MisRate:0.00%    MPKI:0.00
PC:12426     Total:4085      MisBP:0   MisRate:0.00%    MPKI:0.00
PC:12428     Total:4085      MisBP:0   MisRate:0.00%    MPKI:0.00
PC:1242c     Total:4001      MisBP:0   MisRate:0.00%    MPKI:0.00
PC:12432     Total:3741      MisBP:0   MisRate:0.00%    MPKI:0.00
PC:12434     Total:3741      MisBP:0   MisRate:0.00%    MPKI:0.00
PC:12438     Total:3741      MisBP:0   MisRate:0.00%    MPKI:0.00
PC:1243c     Total:3733      MisBP:0   MisRate:0.00%    MPKI:0.00
PC:1243e     Total:3733      MisBP:0   MisRate:0.00%    MPKI:0.00
PC:12440     Total:90671      MisBP:0   MisRate:0.00%    MPKI:0.00
PC:12444     Total:45285      MisBP:0   MisRate:0.00%    MPKI:0.00
PC:12448     Total:90589      MisBP:0   MisRate:0.00%    MPKI:0.00
PC:1318c     Total:145      MisBP:0   MisRate:0.00%    MPKI:0.00
PC:1245a     Total:4417      MisBP:0   MisRate:0.00%    MPKI:0.00
PC:12460     Total:4417      MisBP:0   MisRate:0.00%    MPKI:0.00
PC:12468     Total:4359      MisBP:0   MisRate:0.00%    MPKI:0.00
PC:12470     Total:4339      MisBP:0   MisRate:0.00%    MPKI:0.00
PC:1248a     Total:5022      MisBP:0   MisRate:0.00%    MPKI:0.00
PC:1248e     Total:5022      MisBP:0   MisRate:0.00%    MPKI:0.00
PC:124a0     Total:4953      MisBP:0   MisRate:0.00%    MPKI:0.00
PC:124a2     Total:4953      MisBP:0   MisRate:0.00%    MPKI:0.00
PC:124a4     Total:4953      MisBP:0   MisRate:0.00%    MPKI:0.00
PC:124a6     Total:4953      MisBP:0   MisRate:0.00%    MPKI:0.00
PC:124a8     Total:4952      MisBP:0   MisRate:0.00%    MPKI:0.00
PC:124ac     Total:1653      MisBP:0   MisRate:0.00%    MPKI:0.00
PC:124ae     Total:1653      MisBP:0   MisRate:0.00%    MPKI:0.00
PC:123d4     Total:15026      MisBP:0   MisRate:0.00%    MPKI:0.00
PC:11b1e     Total:4770      MisBP:0   MisRate:0.00%    MPKI:0.00
PC:123c8     Total:15075      MisBP:0   MisRate:0.00%    MPKI:0.00
PC:11f8e     Total:22419      MisBP:0   MisRate:0.00%    MPKI:0.00
PC:11b20     Total:4770      MisBP:0   MisRate:0.00%    MPKI:0.00
PC:123ca     Total:15071      MisBP:0   MisRate:0.00%    MPKI:0.00
PC:11f90     Total:22419      MisBP:0   MisRate:0.00%    MPKI:0.00
PC:11b22     Total:23775      MisBP:0   MisRate:0.00%    MPKI:0.00
PC:123cc     Total:15071      MisBP:0   MisRate:0.00%    MPKI:0.00
PC:11f92     Total:22418      MisBP:0   MisRate:0.00%    MPKI:0.00
PC:123ce     Total:15068      MisBP:0   MisRate:0.00%    MPKI:0.00
PC:11b28     Total:4605      MisBP:0   MisRate:0.00%    MPKI:0.00
PC:123d2     Total:15070      MisBP:0   MisRate:0.00%    MPKI:0.00
PC:11f98     Total:22003      MisBP:0   MisRate:0.00%    MPKI:0.00
PC:11b2a     Total:4604      MisBP:0   MisRate:0.00%    MPKI:0.00
PC:11f8a     Total:22419      MisBP:0   MisRate:0.00%    MPKI:0.00
PC:11f9a     Total:22002      MisBP:0   MisRate:0.00%    MPKI:0.00
PC:11b2c     Total:4604      MisBP:0   MisRate:0.00%    MPKI:0.00
PC:123d6     Total:15024      MisBP:0   MisRate:0.00%    MPKI:0.00
PC:11b2e     Total:22972      MisBP:0   MisRate:0.00%    MPKI:0.00
PC:11f9e     Total:22018      MisBP:0   MisRate:0.00%    MPKI:0.00
PC:11fa2     Total:22018      MisBP:0   MisRate:0.00%    MPKI:0.00
PC:11b34     Total:1817      MisBP:0   MisRate:0.00%    MPKI:0.00
PC:123de     Total:14875      MisBP:0   MisRate:0.00%    MPKI:0.00
PC:11fa4     Total:1      MisBP:0   MisRate:0.00%    MPKI:0.00
PC:11b36     Total:1815      MisBP:0   MisRate:0.00%    MPKI:0.00
PC:123e0     Total:14875      MisBP:0   MisRate:0.00%    MPKI:0.00
PC:11fa6     Total:1      MisBP:0   MisRate:0.00%    MPKI:0.00
PC:11b38     Total:1809      MisBP:0   MisRate:0.00%    MPKI:0.00
PC:122ca     Total:174933      MisBP:0   MisRate:0.00%    MPKI:0.00
PC:119f8     Total:263170      MisBP:0   MisRate:0.00%    MPKI:0.00
PC:122a2     Total:88535      MisBP:0   MisRate:0.00%    MPKI:0.00
PC:11a2e     Total:118234      MisBP:0   MisRate:0.00%    MPKI:0.00
PC:119fa     Total:262844      MisBP:0   MisRate:0.00%    MPKI:0.00
PC:122a4     Total:88507      MisBP:0   MisRate:0.00%    MPKI:0.00
PC:122da     Total:151612      MisBP:0   MisRate:0.00%    MPKI:0.00
PC:11a30     Total:118217      MisBP:0   MisRate:0.00%    MPKI:0.00
PC:122a6     Total:88490      MisBP:0   MisRate:0.00%    MPKI:0.00
PC:11a1a     Total:157597      MisBP:0   MisRate:0.00%    MPKI:0.00
PC:122c6     Total:175067      MisBP:0   MisRate:0.00%    MPKI:0.00
PC:11a1c     Total:157594      MisBP:0   MisRate:0.00%    MPKI:0.00
PC:122c8     Total:175014      MisBP:0   MisRate:0.00%    MPKI:0.00
PC:11a1e     Total:156728      MisBP:0   MisRate:0.00%    MPKI:0.00
PC:123e2     Total:4472      MisBP:0   MisRate:0.00%    MPKI:0.00
PC:122cc     Total:174922      MisBP:0   MisRate:0.00%    MPKI:0.00
PC:11a22     Total:124776      MisBP:0   MisRate:0.00%    MPKI:0.00
PC:122ce     Total:174762      MisBP:0   MisRate:0.00%    MPKI:0.00
PC:11a24     Total:124770      MisBP:0   MisRate:0.00%    MPKI:0.00
PC:122d0     Total:174732      MisBP:0   MisRate:0.00%    MPKI:0.00
PC:11a26     Total:124766      MisBP:0   MisRate:0.00%    MPKI:0.00
PC:122d2     Total:172632      MisBP:0   MisRate:0.00%    MPKI:0.00
PC:11b16     Total:114      MisBP:0   MisRate:0.00%    MPKI:0.00
PC:123c0     Total:20056      MisBP:0   MisRate:0.00%    MPKI:0.00
PC:11f86     Total:22409      MisBP:0   MisRate:0.00%    MPKI:0.00
PC:123c2     Total:20054      MisBP:0   MisRate:0.00%    MPKI:0.00
PC:11f88     Total:22408      MisBP:0   MisRate:0.00%    MPKI:0.00
PC:11b1a     Total:4773      MisBP:0   MisRate:0.00%    MPKI:0.00
PC:1317c     Total:154      MisBP:0   MisRate:0.00%    MPKI:0.00
PC:11fbc     Total:1      MisBP:0   MisRate:0.00%    MPKI:0.00
PC:11f1c     Total:10768      MisBP:0   MisRate:0.00%    MPKI:0.00
PC:11f5e     Total:7767      MisBP:0   MisRate:0.00%    MPKI:0.00
PC:12016     Total:52837      MisBP:0   MisRate:0.00%    MPKI:0.00
PC:12450     Total:89185      MisBP:0   MisRate:0.00%    MPKI:0.00
PC:1201a     Total:52829      MisBP:0   MisRate:0.00%    MPKI:0.00
PC:1201c     Total:52826      MisBP:0   MisRate:0.00%    MPKI:0.00
PC:12456     Total:4418      MisBP:0   MisRate:0.00%    MPKI:0.00
PC:1201e     Total:104294      MisBP:0   MisRate:0.00%    MPKI:0.00
PC:12458     Total:4418      MisBP:0   MisRate:0.00%    MPKI:0.00
PC:12022     Total:104271      MisBP:0   MisRate:0.00%    MPKI:0.00
PC:1245c     Total:4417      MisBP:0   MisRate:0.00%    MPKI:0.00
PC:13178     Total:154      MisBP:0   MisRate:0.00%    MPKI:0.00
PC:12024     Total:104088      MisBP:0   MisRate:0.00%    MPKI:0.00
PC:11f96     Total:22418      MisBP:0   MisRate:0.00%    MPKI:0.00
PC:12028     Total:104065      MisBP:0   MisRate:0.00%    MPKI:0.00
PC:1317e     Total:462      MisBP:0   MisRate:0.00%    MPKI:0.00
PC:1202a     Total:243979      MisBP:0   MisRate:0.00%    MPKI:0.00
PC:12464     Total:4417      MisBP:0   MisRate:0.00%    MPKI:0.00
PC:13180     Total:145      MisBP:0   MisRate:0.00%    MPKI:0.00
PC:1202c     Total:243967      MisBP:0   MisRate:0.00%    MPKI:0.00
PC:13184     Total:145      MisBP:0   MisRate:0.00%    MPKI:0.00
PC:1246a     Total:4359      MisBP:0   MisRate:0.00%    MPKI:0.00
PC:12032     Total:294782      MisBP:0   MisRate:0.00%    MPKI:0.00
PC:1246c     Total:4339      MisBP:0   MisRate:0.00%    MPKI:0.00
PC:13188     Total:145      MisBP:0   MisRate:0.00%    MPKI:0.00
PC:12034     Total:582164      MisBP:0   MisRate:0.00%    MPKI:0.00
PC:1246e     Total:4339      MisBP:0   MisRate:0.00%    MPKI:0.00
PC:123f0     Total:4471      MisBP:0   MisRate:0.00%    MPKI:0.00
PC:11fa8     Total:1      MisBP:0   MisRate:0.00%    MPKI:0.00
PC:11b3a     Total:9028      MisBP:0   MisRate:0.00%    MPKI:0.00
PC:123e4     Total:4472      MisBP:0   MisRate:0.00%    MPKI:0.00
PC:11faa     Total:1      MisBP:0   MisRate:0.00%    MPKI:0.00
PC:11b3e     Total:43784      MisBP:0   MisRate:0.00%    MPKI:0.00
PC:123e8     Total:4472      MisBP:0   MisRate:0.00%    MPKI:0.00
PC:11fae     Total:1      MisBP:0   MisRate:0.00%    MPKI:0.00
PC:11b42     Total:42243      MisBP:0   MisRate:0.00%    MPKI:0.00
PC:123ec     Total:4472      MisBP:0   MisRate:0.00%    MPKI:0.00
PC:11fb2     Total:1      MisBP:0   MisRate:0.00%    MPKI:0.00
PC:11b44     Total:42207      MisBP:0   MisRate:0.00%    MPKI:0.00
PC:123ee     Total:4471      MisBP:0   MisRate:0.00%    MPKI:0.00
PC:11fb4     Total:1      MisBP:0   MisRate:0.00%    MPKI:0.00
PC:12284     Total:22997      MisBP:0   MisRate:0.00%    MPKI:0.00
PC:11fb6     Total:1      MisBP:0   MisRate:0.00%    MPKI:0.00
PC:123f2     Total:4470      MisBP:0   MisRate:0.00%    MPKI:0.00
PC:11fb8     Total:1      MisBP:0   MisRate:0.00%    MPKI:0.00
PC:11b4a     Total:9364      MisBP:0   MisRate:0.00%    MPKI:0.00
PC:123f4     Total:4470      MisBP:0   MisRate:0.00%    MPKI:0.00
PC:11b4e     Total:9357      MisBP:0   MisRate:0.00%    MPKI:0.00
PC:11b50     Total:9317      MisBP:0   MisRate:0.00%    MPKI:0.00
PC:123fa     Total:3903      MisBP:0   MisRate:0.00%    MPKI:0.00
PC:11b52     Total:46486      MisBP:0   MisRate:0.00%    MPKI:0.00
PC:123fc     Total:3905      MisBP:0   MisRate:0.00%    MPKI:0.00
PC:123fe     Total:3905      MisBP:0   MisRate:0.00%    MPKI:0.00
PC:123dc     Total:14879      MisBP:0   MisRate:0.00%    MPKI:0.00
PC:11b32     Total:1818      MisBP:0   MisRate:0.00%    MPKI:0.00
PC:121b0     Total:126      MisBP:0   MisRate:0.00%    MPKI:0.00
PC:1dbf8     Total:120      MisBP:0   MisRate:0.00%    MPKI:0.00
PC:361d6     Total:43      MisBP:0   MisRate:0.00%    MPKI:0.00
PC:1dbf4     Total:240      MisBP:0   MisRate:0.00%    MPKI:0.00
PC:1dbf2     Total:129      MisBP:0   MisRate:0.00%    MPKI:0.00
PC:361d2     Total:59      MisBP:0   MisRate:0.00%    MPKI:0.00
PC:1dbf0     Total:129      MisBP:0   MisRate:0.00%    MPKI:0.00
PC:1dbee     Total:258      MisBP:0   MisRate:0.00%    MPKI:0.00
PC:361ce     Total:59      MisBP:0   MisRate:0.00%    MPKI:0.00
PC:1dbec     Total:516      MisBP:0   MisRate:0.00%    MPKI:0.00
PC:121bc     Total:126      MisBP:0   MisRate:0.00%    MPKI:0.00
PC:121ba     Total:126      MisBP:0   MisRate:0.00%    MPKI:0.00
PC:121b6     Total:126      MisBP:0   MisRate:0.00%    MPKI:0.00
PC:121b4     Total:126      MisBP:0   MisRate:0.00%    MPKI:0.00
PC:121b2     Total:126      MisBP:0   MisRate:0.00%    MPKI:0.00
PC:361da     Total:42      MisBP:0   MisRate:0.00%    MPKI:0.00
PC:121aa     Total:6692      MisBP:0   MisRate:0.00%    MPKI:0.00
PC:121a6     Total:6705      MisBP:0   MisRate:0.00%    MPKI:0.00
PC:121a2     Total:6716      MisBP:0   MisRate:0.00%    MPKI:0.00
PC:1219e     Total:6722      MisBP:0   MisRate:0.00%    MPKI:0.00
PC:1219c     Total:6725      MisBP:0   MisRate:0.00%    MPKI:0.00
PC:12198     Total:6726      MisBP:0   MisRate:0.00%    MPKI:0.00
PC:12196     Total:123      MisBP:0   MisRate:0.00%    MPKI:0.00
PC:12194     Total:123      MisBP:0   MisRate:0.00%    MPKI:0.00
PC:12192     Total:123      MisBP:0   MisRate:0.00%    MPKI:0.00
PC:1218e     Total:14      MisBP:0   MisRate:0.00%    MPKI:0.00
PC:1218a     Total:14      MisBP:0   MisRate:0.00%    MPKI:0.00
PC:12188     Total:12      MisBP:0   MisRate:0.00%    MPKI:0.00
PC:12186     Total:12      MisBP:0   MisRate:0.00%    MPKI:0.00
PC:12184     Total:12      MisBP:0   MisRate:0.00%    MPKI:0.00
PC:361d8     Total:43      MisBP:0   MisRate:0.00%    MPKI:0.00
PC:121c2     Total:121      MisBP:0   MisRate:0.00%    MPKI:0.00
PC:121be     Total:121      MisBP:0   MisRate:0.00%    MPKI:0.00
PC:361fc     Total:24      MisBP:0   MisRate:0.00%    MPKI:0.00
PC:361fa     Total:24      MisBP:0   MisRate:0.00%    MPKI:0.00
PC:361f8     Total:24      MisBP:0   MisRate:0.00%    MPKI:0.00
PC:361f6     Total:24      MisBP:0   MisRate:0.00%    MPKI:0.00
PC:361f4     Total:24      MisBP:0   MisRate:0.00%    MPKI:0.00
PC:361f2     Total:24      MisBP:0   MisRate:0.00%    MPKI:0.00
PC:361ee     Total:24      MisBP:0   MisRate:0.00%    MPKI:0.00
PC:361ea     Total:24      MisBP:0   MisRate:0.00%    MPKI:0.00
PC:361e8     Total:41      MisBP:0   MisRate:0.00%    MPKI:0.00
PC:361e4     Total:41      MisBP:0   MisRate:0.00%    MPKI:0.00
PC:361e2     Total:41      MisBP:0   MisRate:0.00%    MPKI:0.00
PC:361e0     Total:42      MisBP:0   MisRate:0.00%    MPKI:0.00
PC:1217e     Total:133      MisBP:0   MisRate:0.00%    MPKI:0.00
PC:361ca     Total:59      MisBP:0   MisRate:0.00%    MPKI:0.00
PC:361c8     Total:59      MisBP:0   MisRate:0.00%    MPKI:0.00
PC:361c6     Total:59      MisBP:0   MisRate:0.00%    MPKI:0.00
PC:361c4     Total:59      MisBP:0   MisRate:0.00%    MPKI:0.00
PC:361c2     Total:59      MisBP:0   MisRate:0.00%    MPKI:0.00
PC:361be     Total:59      MisBP:0   MisRate:0.00%    MPKI:0.00
PC:361ba     Total:249      MisBP:0   MisRate:0.00%    MPKI:0.00
PC:361b6     Total:83      MisBP:0   MisRate:0.00%    MPKI:0.00
PC:361b2     Total:924      MisBP:0   MisRate:0.00%    MPKI:0.00
PC:361b0     Total:97      MisBP:0   MisRate:0.00%    MPKI:0.00
PC:361de     Total:42      MisBP:0   MisRate:0.00%    MPKI:0.00
PC:1dbfc     Total:120      MisBP:0   MisRate:0.00%    MPKI:0.00
PC:1dbfa     Total:120      MisBP:0   MisRate:0.00%    MPKI:0.00
PC:120f6     Total:53053      MisBP:0   MisRate:0.00%    MPKI:0.00
PC:12122     Total:49      MisBP:0   MisRate:0.00%    MPKI:0.00
PC:12120     Total:49      MisBP:0   MisRate:0.00%    MPKI:0.00
PC:1211c     Total:53537      MisBP:0   MisRate:0.00%    MPKI:0.00
PC:12118     Total:53585      MisBP:0   MisRate:0.00%    MPKI:0.00
PC:12116     Total:53592      MisBP:0   MisRate:0.00%    MPKI:0.00
PC:12112     Total:45818      MisBP:0   MisRate:0.00%    MPKI:0.00
PC:1210e     Total:45856      MisBP:0   MisRate:0.00%    MPKI:0.00
PC:1210a     Total:45923      MisBP:0   MisRate:0.00%    MPKI:0.00
PC:12108     Total:45935      MisBP:0   MisRate:0.00%    MPKI:0.00
PC:12104     Total:45939      MisBP:0   MisRate:0.00%    MPKI:0.00
PC:12100     Total:52529      MisBP:0   MisRate:0.00%    MPKI:0.00
PC:120fc     Total:52906      MisBP:0   MisRate:0.00%    MPKI:0.00
PC:120fa     Total:52974      MisBP:0   MisRate:0.00%    MPKI:0.00
PC:120f8     Total:53034      MisBP:0   MisRate:0.00%    MPKI:0.00
PC:12126     Total:49      MisBP:0   MisRate:0.00%    MPKI:0.00
PC:120f4     Total:53126      MisBP:0   MisRate:0.00%    MPKI:0.00
PC:120f2     Total:53146      MisBP:0   MisRate:0.00%    MPKI:0.00
PC:1229c     Total:22453      MisBP:0   MisRate:0.00%    MPKI:0.00
PC:120ea     Total:60      MisBP:0   MisRate:0.00%    MPKI:0.00
PC:120e8     Total:60      MisBP:0   MisRate:0.00%    MPKI:0.00
PC:120e4     Total:60      MisBP:0   MisRate:0.00%    MPKI:0.00
PC:120e0     Total:60      MisBP:0   MisRate:0.00%    MPKI:0.00
PC:120dc     Total:60      MisBP:0   MisRate:0.00%    MPKI:0.00
PC:120da     Total:60      MisBP:0   MisRate:0.00%    MPKI:0.00
PC:120d8     Total:60      MisBP:0   MisRate:0.00%    MPKI:0.00
PC:120d6     Total:60      MisBP:0   MisRate:0.00%    MPKI:0.00
PC:120d2     Total:60      MisBP:0   MisRate:0.00%    MPKI:0.00
PC:120d0     Total:60      MisBP:0   MisRate:0.00%    MPKI:0.00
PC:120ca     Total:12715      MisBP:0   MisRate:0.00%    MPKI:0.00
PC:12152     Total:26081      MisBP:0   MisRate:0.00%    MPKI:0.00
PC:1217c     Total:133      MisBP:0   MisRate:0.00%    MPKI:0.00
PC:1217a     Total:121      MisBP:0   MisRate:0.00%    MPKI:0.00
PC:12176     Total:26431      MisBP:0   MisRate:0.00%    MPKI:0.00
PC:12172     Total:26440      MisBP:0   MisRate:0.00%    MPKI:0.00
PC:12170     Total:26441      MisBP:0   MisRate:0.00%    MPKI:0.00
PC:1216c     Total:24040      MisBP:0   MisRate:0.00%    MPKI:0.00
PC:12168     Total:24060      MisBP:0   MisRate:0.00%    MPKI:0.00
PC:12166     Total:24114      MisBP:0   MisRate:0.00%    MPKI:0.00
PC:12164     Total:24122      MisBP:0   MisRate:0.00%    MPKI:0.00
PC:12160     Total:24130      MisBP:0   MisRate:0.00%    MPKI:0.00
PC:1215c     Total:25940      MisBP:0   MisRate:0.00%    MPKI:0.00
PC:12158     Total:26006      MisBP:0   MisRate:0.00%    MPKI:0.00
PC:12156     Total:26022      MisBP:0   MisRate:0.00%    MPKI:0.00
PC:12154     Total:26055      MisBP:0   MisRate:0.00%    MPKI:0.00
PC:121c4     Total:121      MisBP:0   MisRate:0.00%    MPKI:0.00
PC:12150     Total:26115      MisBP:0   MisRate:0.00%    MPKI:0.00
PC:1214e     Total:26248      MisBP:0   MisRate:0.00%    MPKI:0.00
PC:1214a     Total:52554      MisBP:0   MisRate:0.00%    MPKI:0.00
PC:12146     Total:38      MisBP:0   MisRate:0.00%    MPKI:0.00
PC:12144     Total:38      MisBP:0   MisRate:0.00%    MPKI:0.00
PC:12142     Total:38      MisBP:0   MisRate:0.00%    MPKI:0.00
PC:1213e     Total:48      MisBP:0   MisRate:0.00%    MPKI:0.00
PC:1213c     Total:48      MisBP:0   MisRate:0.00%    MPKI:0.00
PC:12138     Total:48      MisBP:0   MisRate:0.00%    MPKI:0.00
PC:12134     Total:48      MisBP:0   MisRate:0.00%    MPKI:0.00
PC:12130     Total:48      MisBP:0   MisRate:0.00%    MPKI:0.00
PC:1212c     Total:49      MisBP:0   MisRate:0.00%    MPKI:0.00
PC:12128     Total:49      MisBP:0   MisRate:0.00%    MPKI:0.00
PC:1254a     Total:1      MisBP:0   MisRate:0.00%    MPKI:0.00
PC:11e44     Total:50      MisBP:0   MisRate:0.00%    MPKI:0.00
PC:11e40     Total:25      MisBP:0   MisRate:0.00%    MPKI:0.00
PC:11e3e     Total:25      MisBP:0   MisRate:0.00%    MPKI:0.00
PC:1256a     Total:1      MisBP:0   MisRate:0.00%    MPKI:0.00
PC:12566     Total:1      MisBP:0   MisRate:0.00%    MPKI:0.00
PC:12564     Total:1      MisBP:0   MisRate:0.00%    MPKI:0.00
PC:12562     Total:1      MisBP:0   MisRate:0.00%    MPKI:0.00
PC:12560     Total:1      MisBP:0   MisRate:0.00%    MPKI:0.00
PC:1255c     Total:1      MisBP:0   MisRate:0.00%    MPKI:0.00
PC:1255a     Total:1      MisBP:0   MisRate:0.00%    MPKI:0.00
PC:12556     Total:1      MisBP:0   MisRate:0.00%    MPKI:0.00
PC:12554     Total:1      MisBP:0   MisRate:0.00%    MPKI:0.00
PC:12550     Total:1      MisBP:0   MisRate:0.00%    MPKI:0.00
PC:1254e     Total:1      MisBP:0   MisRate:0.00%    MPKI:0.00
PC:11e48     Total:25      MisBP:0   MisRate:0.00%    MPKI:0.00
PC:12548     Total:1      MisBP:0   MisRate:0.00%    MPKI:0.00
PC:12544     Total:1      MisBP:0   MisRate:0.00%    MPKI:0.00
PC:12542     Total:1      MisBP:0   MisRate:0.00%    MPKI:0.00
PC:12540     Total:94      MisBP:0   MisRate:0.00%    MPKI:0.00
PC:1253e     Total:94      MisBP:0   MisRate:0.00%    MPKI:0.00
PC:2924e     Total:1      MisBP:0   MisRate:0.00%    MPKI:0.00
PC:3623e     Total:1      MisBP:0   MisRate:0.00%    MPKI:0.00
PC:2924c     Total:1      MisBP:0   MisRate:0.00%    MPKI:0.00
PC:3623c     Total:1      MisBP:0   MisRate:0.00%    MPKI:0.00
PC:2924a     Total:1      MisBP:0   MisRate:0.00%    MPKI:0.00
PC:3623a     Total:1      MisBP:0   MisRate:0.00%    MPKI:0.00
PC:29248     Total:1      MisBP:0   MisRate:0.00%    MPKI:0.00
PC:36238     Total:1      MisBP:0   MisRate:0.00%    MPKI:0.00
PC:29246     Total:1      MisBP:0   MisRate:0.00%    MPKI:0.00
PC:29252     Total:1      MisBP:0   MisRate:0.00%    MPKI:0.00
PC:29274     Total:2      MisBP:0   MisRate:0.00%    MPKI:0.00
PC:29272     Total:1      MisBP:0   MisRate:0.00%    MPKI:0.00
PC:2926e     Total:1      MisBP:0   MisRate:0.00%    MPKI:0.00
PC:2926a     Total:1      MisBP:0   MisRate:0.00%    MPKI:0.00
PC:29268     Total:1      MisBP:0   MisRate:0.00%    MPKI:0.00
PC:29266     Total:1      MisBP:0   MisRate:0.00%    MPKI:0.00
PC:29264     Total:1      MisBP:0   MisRate:0.00%    MPKI:0.00
PC:29262     Total:1      MisBP:0   MisRate:0.00%    MPKI:0.00
PC:29260     Total:1      MisBP:0   MisRate:0.00%    MPKI:0.00
PC:2925e     Total:1      MisBP:0   MisRate:0.00%    MPKI:0.00
PC:2925c     Total:1      MisBP:0   MisRate:0.00%    MPKI:0.00
PC:29258     Total:2      MisBP:0   MisRate:0.00%    MPKI:0.00
PC:29256     Total:1      MisBP:0   MisRate:0.00%    MPKI:0.00
PC:29254     Total:1      MisBP:0   MisRate:0.00%    MPKI:0.00
PC:36236     Total:1      MisBP:0   MisRate:0.00%    MPKI:0.00
PC:29250     Total:1      MisBP:0   MisRate:0.00%    MPKI:0.00
PC:29242     Total:5      MisBP:0   MisRate:0.00%    MPKI:0.00
PC:11f80     Total:130      MisBP:0   MisRate:0.00%    MPKI:0.00
PC:11b4c     Total:9359      MisBP:0   MisRate:0.00%    MPKI:0.00
PC:11b26     Total:4605      MisBP:0   MisRate:0.00%    MPKI:0.00
PC:11e58     Total:25      MisBP:0   MisRate:0.00%    MPKI:0.00
PC:11e56     Total:25      MisBP:0   MisRate:0.00%    MPKI:0.00
PC:11e54     Total:25      MisBP:0   MisRate:0.00%    MPKI:0.00
PC:11e52     Total:25      MisBP:0   MisRate:0.00%    MPKI:0.00
PC:11e50     Total:25      MisBP:0   MisRate:0.00%    MPKI:0.00
PC:11e4e     Total:25      MisBP:0   MisRate:0.00%    MPKI:0.00
PC:11e4c     Total:25      MisBP:0   MisRate:0.00%    MPKI:0.00
PC:11e4a     Total:25      MisBP:0   MisRate:0.00%    MPKI:0.00
PC:121ee     Total:114      MisBP:0   MisRate:0.00%    MPKI:0.00
PC:12210     Total:67029      MisBP:0   MisRate:0.00%    MPKI:0.00
PC:1220e     Total:67046      MisBP:0   MisRate:0.00%    MPKI:0.00
PC:1220c     Total:67048      MisBP:0   MisRate:0.00%    MPKI:0.00
PC:1220a     Total:67049      MisBP:0   MisRate:0.00%    MPKI:0.00
PC:12208     Total:67049      MisBP:0   MisRate:0.00%    MPKI:0.00
PC:12206     Total:67052      MisBP:0   MisRate:0.00%    MPKI:0.00
PC:12202     Total:67052      MisBP:0   MisRate:0.00%    MPKI:0.00
PC:121fe     Total:134104      MisBP:0   MisRate:0.00%    MPKI:0.00
PC:121fa     Total:113      MisBP:0   MisRate:0.00%    MPKI:0.00
PC:121f8     Total:113      MisBP:0   MisRate:0.00%    MPKI:0.00
PC:121f6     Total:113      MisBP:0   MisRate:0.00%    MPKI:0.00
PC:121f4     Total:113      MisBP:0   MisRate:0.00%    MPKI:0.00
PC:121f2     Total:114      MisBP:0   MisRate:0.00%    MPKI:0.00
PC:121f0     Total:114      MisBP:0   MisRate:0.00%    MPKI:0.00
PC:12214     Total:67025      MisBP:0   MisRate:0.00%    MPKI:0.00
PC:121ec     Total:30      MisBP:0   MisRate:0.00%    MPKI:0.00
PC:121ea     Total:30      MisBP:0   MisRate:0.00%    MPKI:0.00
PC:121e6     Total:30      MisBP:0   MisRate:0.00%    MPKI:0.00
PC:121e4     Total:30      MisBP:0   MisRate:0.00%    MPKI:0.00
PC:121e2     Total:30      MisBP:0   MisRate:0.00%    MPKI:0.00
PC:121e0     Total:30      MisBP:0   MisRate:0.00%    MPKI:0.00
PC:121da     Total:121      MisBP:0   MisRate:0.00%    MPKI:0.00
PC:121d8     Total:121      MisBP:0   MisRate:0.00%    MPKI:0.00
PC:121d4     Total:121      MisBP:0   MisRate:0.00%    MPKI:0.00
PC:121d0     Total:121      MisBP:0   MisRate:0.00%    MPKI:0.00
PC:121ce     Total:121      MisBP:0   MisRate:0.00%    MPKI:0.00
PC:121ca     Total:121      MisBP:0   MisRate:0.00%    MPKI:0.00
PC:121c8     Total:121      MisBP:0   MisRate:0.00%    MPKI:0.00
PC:36214     Total:1      MisBP:0   MisRate:0.00%    MPKI:0.00
PC:29244     Total:5      MisBP:0   MisRate:0.00%    MPKI:0.00
PC:36234     Total:1      MisBP:0   MisRate:0.00%    MPKI:0.00
PC:29240     Total:30      MisBP:0   MisRate:0.00%    MPKI:0.00
PC:36230     Total:1      MisBP:0   MisRate:0.00%    MPKI:0.00
PC:3622e     Total:1      MisBP:0   MisRate:0.00%    MPKI:0.00
PC:3622c     Total:1      MisBP:0   MisRate:0.00%    MPKI:0.00
PC:3622a     Total:1      MisBP:0   MisRate:0.00%    MPKI:0.00
PC:36228     Total:1      MisBP:0   MisRate:0.00%    MPKI:0.00
PC:36226     Total:1      MisBP:0   MisRate:0.00%    MPKI:0.00
PC:36222     Total:1      MisBP:0   MisRate:0.00%    MPKI:0.00
PC:36220     Total:1      MisBP:0   MisRate:0.00%    MPKI:0.00
PC:3621c     Total:1      MisBP:0   MisRate:0.00%    MPKI:0.00
PC:3621a     Total:1      MisBP:0   MisRate:0.00%    MPKI:0.00
PC:36216     Total:1      MisBP:0   MisRate:0.00%    MPKI:0.00
PC:120ee     Total:106530      MisBP:0   MisRate:0.00%    MPKI:0.00
PC:36210     Total:1      MisBP:0   MisRate:0.00%    MPKI:0.00
PC:3620e     Total:1      MisBP:0   MisRate:0.00%    MPKI:0.00
PC:3620a     Total:1      MisBP:0   MisRate:0.00%    MPKI:0.00
PC:36206     Total:1      MisBP:0   MisRate:0.00%    MPKI:0.00
PC:36204     Total:1      MisBP:0   MisRate:0.00%    MPKI:0.00
PC:36200     Total:8      MisBP:0   MisRate:0.00%    MPKI:0.00
PC:12230     Total:3      MisBP:0   MisRate:0.00%    MPKI:0.00
PC:1222c     Total:22      MisBP:0   MisRate:0.00%    MPKI:0.00
PC:12228     Total:22      MisBP:0   MisRate:0.00%    MPKI:0.00
PC:12220     Total:31      MisBP:0   MisRate:0.00%    MPKI:0.00
PC:1221e     Total:31      MisBP:0   MisRate:0.00%    MPKI:0.00
PC:1221a     Total:67024      MisBP:0   MisRate:0.00%    MPKI:0.00
PC:12216     Total:67024      MisBP:0   MisRate:0.00%    MPKI:0.00
PC:11afc     Total:3247576      MisBP:0   MisRate:0.00%    MPKI:0.00
PC:11f56     Total:618285      MisBP:0   MisRate:0.00%    MPKI:0.00
PC:11f52     Total:608158      MisBP:0   MisRate:0.00%    MPKI:0.00
PC:11f4a     Total:429022      MisBP:0   MisRate:0.00%    MPKI:0.00
PC:11f46     Total:429143      MisBP:0   MisRate:0.00%    MPKI:0.00
PC:1237e     Total:189301      MisBP:0   MisRate:0.00%    MPKI:0.00
PC:11f42     Total:429201      MisBP:0   MisRate:0.00%    MPKI:0.00
PC:12376     Total:191182      MisBP:0   MisRate:0.00%    MPKI:0.00
PC:123ac     Total:71965      MisBP:0   MisRate:0.00%    MPKI:0.00
PC:11b02     Total:3242862      MisBP:0   MisRate:0.00%    MPKI:0.00
PC:11f3c     Total:590616      MisBP:0   MisRate:0.00%    MPKI:0.00
PC:123aa     Total:72237      MisBP:0   MisRate:0.00%    MPKI:0.00
PC:11b00     Total:3242888      MisBP:0   MisRate:0.00%    MPKI:0.00
PC:11f3a     Total:590676      MisBP:0   MisRate:0.00%    MPKI:0.00
PC:11f5a     Total:618154      MisBP:0   MisRate:0.00%    MPKI:0.00
PC:11f36     Total:1181526      MisBP:0   MisRate:0.00%    MPKI:0.00
PC:123a4     Total:72213      MisBP:0   MisRate:0.00%    MPKI:0.00
PC:11afa     Total:3248144      MisBP:0   MisRate:0.00%    MPKI:0.00
PC:11f34     Total:10720      MisBP:0   MisRate:0.00%    MPKI:0.00
PC:123a2     Total:72260      MisBP:0   MisRate:0.00%    MPKI:0.00
PC:11af8     Total:3250208      MisBP:0   MisRate:0.00%    MPKI:0.00
PC:123a0     Total:72322      MisBP:0   MisRate:0.00%    MPKI:0.00
PC:11af6     Total:3250214      MisBP:0   MisRate:0.00%    MPKI:0.00
PC:11f30     Total:10721      MisBP:0   MisRate:0.00%    MPKI:0.00
PC:12368     Total:112743      MisBP:0   MisRate:0.00%    MPKI:0.00
PC:1239e     Total:72473      MisBP:0   MisRate:0.00%    MPKI:0.00
PC:11af4     Total:3250225      MisBP:0   MisRate:0.00%    MPKI:0.00
PC:1239c     Total:73129      MisBP:0   MisRate:0.00%    MPKI:0.00
PC:12512     Total:1      MisBP:0   MisRate:0.00%    MPKI:0.00
PC:12238     Total:12669      MisBP:0   MisRate:0.00%    MPKI:0.00
PC:12236     Total:12669      MisBP:0   MisRate:0.00%    MPKI:0.00
PC:12234     Total:12669      MisBP:0   MisRate:0.00%    MPKI:0.00
PC:12232     Total:12669      MisBP:0   MisRate:0.00%    MPKI:0.00
PC:12528     Total:1      MisBP:0   MisRate:0.00%    MPKI:0.00
PC:12526     Total:1      MisBP:0   MisRate:0.00%    MPKI:0.00
PC:12524     Total:1      MisBP:0   MisRate:0.00%    MPKI:0.00
PC:12522     Total:1      MisBP:0   MisRate:0.00%    MPKI:0.00
PC:12520     Total:1      MisBP:0   MisRate:0.00%    MPKI:0.00
PC:1251e     Total:1      MisBP:0   MisRate:0.00%    MPKI:0.00
PC:1251a     Total:1      MisBP:0   MisRate:0.00%    MPKI:0.00
PC:12518     Total:1      MisBP:0   MisRate:0.00%    MPKI:0.00
PC:12514     Total:1      MisBP:0   MisRate:0.00%    MPKI:0.00
PC:11af2     Total:3250317      MisBP:0   MisRate:0.00%    MPKI:0.00
PC:12510     Total:1      MisBP:0   MisRate:0.00%    MPKI:0.00
PC:1250c     Total:1      MisBP:0   MisRate:0.00%    MPKI:0.00
PC:1250a     Total:1      MisBP:0   MisRate:0.00%    MPKI:0.00
PC:12506     Total:1      MisBP:0   MisRate:0.00%    MPKI:0.00
PC:12504     Total:4975      MisBP:0   MisRate:0.00%    MPKI:0.00
PC:12500     Total:4977      MisBP:0   MisRate:0.00%    MPKI:0.00
PC:124fc     Total:5230      MisBP:0   MisRate:0.00%    MPKI:0.00
PC:11f72     Total:3847      MisBP:0   MisRate:0.00%    MPKI:0.00
PC:11f6e     Total:3847      MisBP:0   MisRate:0.00%    MPKI:0.00
PC:11f6a     Total:3850      MisBP:0   MisRate:0.00%    MPKI:0.00
PC:11f68     Total:3854      MisBP:0   MisRate:0.00%    MPKI:0.00
PC:11f60     Total:7777      MisBP:0   MisRate:0.00%    MPKI:0.00
PC:12362     Total:113152      MisBP:0   MisRate:0.00%    MPKI:0.00
PC:12374     Total:191239      MisBP:0   MisRate:0.00%    MPKI:0.00
PC:11aca     Total:3274870      MisBP:0   MisRate:0.00%    MPKI:0.00
PC:11f04     Total:9294      MisBP:0   MisRate:0.00%    MPKI:0.00
PC:1233c     Total:89699      MisBP:0   MisRate:0.00%    MPKI:0.00
PC:11f02     Total:9302      MisBP:0   MisRate:0.00%    MPKI:0.00
PC:1236e     Total:191701      MisBP:0   MisRate:0.00%    MPKI:0.00
PC:11efe     Total:9496      MisBP:0   MisRate:0.00%    MPKI:0.00
PC:11ac2     Total:3276777      MisBP:0   MisRate:0.00%    MPKI:0.00
PC:11efc     Total:9501      MisBP:0   MisRate:0.00%    MPKI:0.00
PC:1236a     Total:111332      MisBP:0   MisRate:0.00%    MPKI:0.00
PC:11ac0     Total:3276863      MisBP:0   MisRate:0.00%    MPKI:0.00
PC:11ef8     Total:9502      MisBP:0   MisRate:0.00%    MPKI:0.00
PC:12364     Total:113100      MisBP:0   MisRate:0.00%    MPKI:0.00
PC:11f06     Total:9292      MisBP:0   MisRate:0.00%    MPKI:0.00
PC:11ab8     Total:3292598      MisBP:0   MisRate:0.00%    MPKI:0.00
PC:11ef2     Total:9507      MisBP:0   MisRate:0.00%    MPKI:0.00
PC:1235e     Total:113234      MisBP:0   MisRate:0.00%    MPKI:0.00
PC:11ab4     Total:3292630      MisBP:0   MisRate:0.00%    MPKI:0.00
PC:11eee     Total:9510      MisBP:0   MisRate:0.00%    MPKI:0.00
PC:12326     Total:218450      MisBP:0   MisRate:0.00%    MPKI:0.00
PC:11eec     Total:9512      MisBP:0   MisRate:0.00%    MPKI:0.00
PC:1235a     Total:113262      MisBP:0   MisRate:0.00%    MPKI:0.00
PC:11ab0     Total:3292678      MisBP:0   MisRate:0.00%    MPKI:0.00
PC:11eea     Total:9662      MisBP:0   MisRate:0.00%    MPKI:0.00
PC:12358     Total:84230      MisBP:0   MisRate:0.00%    MPKI:0.00
PC:11a0a     Total:214901      MisBP:0   MisRate:0.00%    MPKI:0.00
PC:11a00     Total:239528      MisBP:0   MisRate:0.00%    MPKI:0.00
PC:11f22     Total:10767      MisBP:0   MisRate:0.00%    MPKI:0.00
PC:11f2c     Total:10721      MisBP:0   MisRate:0.00%    MPKI:0.00
PC:1239a     Total:73154      MisBP:0   MisRate:0.00%    MPKI:0.00
PC:11af0     Total:3250359      MisBP:0   MisRate:0.00%    MPKI:0.00
PC:11f28     Total:10669      MisBP:0   MisRate:0.00%    MPKI:0.00
PC:12360     Total:113229      MisBP:0   MisRate:0.00%    MPKI:0.00
PC:12396     Total:73192      MisBP:0   MisRate:0.00%    MPKI:0.00
PC:11aec     Total:3255705      MisBP:0   MisRate:0.00%    MPKI:0.00
PC:11f26     Total:10669      MisBP:0   MisRate:0.00%    MPKI:0.00
PC:12394     Total:73193      MisBP:0   MisRate:0.00%    MPKI:0.00
PC:11aea     Total:3257973      MisBP:0   MisRate:0.00%    MPKI:0.00
PC:11f24     Total:10750      MisBP:0   MisRate:0.00%    MPKI:0.00
PC:1235c     Total:113242      MisBP:0   MisRate:0.00%    MPKI:0.00
PC:11ae8     Total:3261388      MisBP:0   MisRate:0.00%    MPKI:0.00
PC:120c2     Total:6364      MisBP:0   MisRate:0.00%    MPKI:0.00
PC:12390     Total:64347      MisBP:0   MisRate:0.00%    MPKI:0.00
PC:1238e     Total:64351      MisBP:0   MisRate:0.00%    MPKI:0.00
PC:11ae4     Total:3262068      MisBP:0   MisRate:0.00%    MPKI:0.00
PC:11f1e     Total:10767      MisBP:0   MisRate:0.00%    MPKI:0.00
PC:1238a     Total:144710      MisBP:0   MisRate:0.00%    MPKI:0.00
PC:11ae0     Total:3262142      MisBP:0   MisRate:0.00%    MPKI:0.00
PC:11f1a     Total:10718      MisBP:0   MisRate:0.00%    MPKI:0.00
PC:12352     Total:84408      MisBP:0   MisRate:0.00%    MPKI:0.00
PC:12386     Total:182785      MisBP:0   MisRate:0.00%    MPKI:0.00
PC:11adc     Total:3262165      MisBP:0   MisRate:0.00%    MPKI:0.00
PC:11f16     Total:10718      MisBP:0   MisRate:0.00%    MPKI:0.00
PC:11ace     Total:3274862      MisBP:0   MisRate:0.00%    MPKI:0.00
PC:120ac     Total:6397      MisBP:0   MisRate:0.00%    MPKI:0.00
PC:11e70     Total:2615      MisBP:0   MisRate:0.00%    MPKI:0.00
PC:11e6e     Total:2618      MisBP:0   MisRate:0.00%    MPKI:0.00
PC:11e68     Total:9997      MisBP:0   MisRate:0.00%    MPKI:0.00
PC:11e66     Total:10006      MisBP:0   MisRate:0.00%    MPKI:0.00
PC:11e64     Total:9975      MisBP:0   MisRate:0.00%    MPKI:0.00
PC:11e5e     Total:9988      MisBP:0   MisRate:0.00%    MPKI:0.00
PC:11e5c     Total:10003      MisBP:0   MisRate:0.00%    MPKI:0.00
PC:11e5a     Total:9986      MisBP:0   MisRate:0.00%    MPKI:0.00
PC:120ba     Total:6389      MisBP:0   MisRate:0.00%    MPKI:0.00
PC:120b8     Total:6389      MisBP:0   MisRate:0.00%    MPKI:0.00
PC:120b4     Total:6390      MisBP:0   MisRate:0.00%    MPKI:0.00
PC:120b0     Total:6394      MisBP:0   MisRate:0.00%    MPKI:0.00
PC:11e74     Total:2620      MisBP:0   MisRate:0.00%    MPKI:0.00
PC:120aa     Total:6399      MisBP:0   MisRate:0.00%    MPKI:0.00
PC:1223c     Total:12669      MisBP:0   MisRate:0.00%    MPKI:0.00
PC:120a4     Total:66      MisBP:0   MisRate:0.00%    MPKI:0.00
PC:120a0     Total:66      MisBP:0   MisRate:0.00%    MPKI:0.00
PC:1209e     Total:66      MisBP:0   MisRate:0.00%    MPKI:0.00
PC:1209a     Total:64      MisBP:0   MisRate:0.00%    MPKI:0.00
PC:12096     Total:64      MisBP:0   MisRate:0.00%    MPKI:0.00
PC:12092     Total:5      MisBP:0   MisRate:0.00%    MPKI:0.00
PC:1208e     Total:5      MisBP:0   MisRate:0.00%    MPKI:0.00
PC:1208a     Total:63      MisBP:0   MisRate:0.00%    MPKI:0.00
PC:12086     Total:63      MisBP:0   MisRate:0.00%    MPKI:0.00
PC:12084     Total:63      MisBP:0   MisRate:0.00%    MPKI:0.00
PC:11e98     Total:373      MisBP:0   MisRate:0.00%    MPKI:0.00
PC:120c6     Total:6360      MisBP:0   MisRate:0.00%    MPKI:0.00
PC:120be     Total:12734      MisBP:0   MisRate:0.00%    MPKI:0.00
PC:131a4     Total:1      MisBP:0   MisRate:0.00%    MPKI:0.00
PC:11eaa     Total:362      MisBP:0   MisRate:0.00%    MPKI:0.00
PC:11ea8     Total:362      MisBP:0   MisRate:0.00%    MPKI:0.00
PC:11ea6     Total:363      MisBP:0   MisRate:0.00%    MPKI:0.00
PC:11ea4     Total:363      MisBP:0   MisRate:0.00%    MPKI:0.00
PC:11ea2     Total:373      MisBP:0   MisRate:0.00%    MPKI:0.00
PC:11ea0     Total:373      MisBP:0   MisRate:0.00%    MPKI:0.00
PC:11e9e     Total:373      MisBP:0   MisRate:0.00%    MPKI:0.00
PC:11e9c     Total:373      MisBP:0   MisRate:0.00%    MPKI:0.00
PC:11e9a     Total:373      MisBP:0   MisRate:0.00%    MPKI:0.00
PC:120a6     Total:6400      MisBP:0   MisRate:0.00%    MPKI:0.00
PC:11e94     Total:373      MisBP:0   MisRate:0.00%    MPKI:0.00
PC:11e92     Total:373      MisBP:0   MisRate:0.00%    MPKI:0.00
PC:11e90     Total:393      MisBP:0   MisRate:0.00%    MPKI:0.00
PC:11e8e     Total:393      MisBP:0   MisRate:0.00%    MPKI:0.00
PC:11e8c     Total:393      MisBP:0   MisRate:0.00%    MPKI:0.00
PC:11e8a     Total:393      MisBP:0   MisRate:0.00%    MPKI:0.00
PC:11e86     Total:393      MisBP:0   MisRate:0.00%    MPKI:0.00
PC:11e84     Total:393      MisBP:0   MisRate:0.00%    MPKI:0.00
PC:11e82     Total:393      MisBP:0   MisRate:0.00%    MPKI:0.00
PC:11e7c     Total:2614      MisBP:0   MisRate:0.00%    MPKI:0.00
PC:11e7a     Total:2616      MisBP:0   MisRate:0.00%    MPKI:0.00
PC:11e76     Total:2617      MisBP:0   MisRate:0.00%    MPKI:0.00
PC:131be     Total:1      MisBP:0   MisRate:0.00%    MPKI:0.00
PC:12076     Total:10664      MisBP:0   MisRate:0.00%    MPKI:0.00
PC:1224c     Total:90153      MisBP:0   MisRate:0.00%    MPKI:0.00
PC:1224e     Total:89589      MisBP:0   MisRate:0.00%    MPKI:0.00
PC:12072     Total:10672      MisBP:0   MisRate:0.00%    MPKI:0.00
PC:12070     Total:10678      MisBP:0   MisRate:0.00%    MPKI:0.00
PC:12252     Total:11486      MisBP:0   MisRate:0.00%    MPKI:0.00
PC:1206e     Total:10687      MisBP:0   MisRate:0.00%    MPKI:0.00
PC:1206c     Total:10684      MisBP:0   MisRate:0.00%    MPKI:0.00
PC:1226a     Total:24638      MisBP:0   MisRate:0.00%    MPKI:0.00
PC:12082     Total:63      MisBP:0   MisRate:0.00%    MPKI:0.00
PC:1206a     Total:10635      MisBP:0   MisRate:0.00%    MPKI:0.00
PC:131ba     Total:1      MisBP:0   MisRate:0.00%    MPKI:0.00
PC:11b1c     Total:4773      MisBP:0   MisRate:0.00%    MPKI:0.00
PC:12066     Total:10658      MisBP:0   MisRate:0.00%    MPKI:0.00
PC:12488     Total:2746      MisBP:0   MisRate:0.00%    MPKI:0.00
PC:12480     Total:2718      MisBP:0   MisRate:0.00%    MPKI:0.00
PC:12486     Total:2746      MisBP:0   MisRate:0.00%    MPKI:0.00
PC:12484     Total:2718      MisBP:0   MisRate:0.00%    MPKI:0.00
PC:12482     Total:2718      MisBP:0   MisRate:0.00%    MPKI:0.00
PC:1223e     Total:11675      MisBP:0   MisRate:0.00%    MPKI:0.00
PC:1207a     Total:10521      MisBP:0   MisRate:0.00%    MPKI:0.00
PC:1224a     Total:90163      MisBP:0   MisRate:0.00%    MPKI:0.00
PC:12246     Total:181372      MisBP:0   MisRate:0.00%    MPKI:0.00
PC:1207c     Total:10511      MisBP:0   MisRate:0.00%    MPKI:0.00
PC:120e6     Total:60      MisBP:1   MisRate:1.67%    MPKI:0.00
PC:11b46     Total:210790      MisBP:2   MisRate:0.00%    MPKI:0.00
PC:1208c     Total:63      MisBP:3   MisRate:4.76%    MPKI:0.00
PC:121dc     Total:121      MisBP:3   MisRate:2.48%    MPKI:0.00
PC:12180     Total:132      MisBP:4   MisRate:3.03%    MPKI:0.00
PC:12182     Total:12      MisBP:6   MisRate:50.00%    MPKI:0.00
PC:12140     Total:43      MisBP:7   MisRate:16.28%    MPKI:0.00
PC:11b12     Total:3240404      MisBP:12   MisRate:0.00%    MPKI:0.00
PC:1227c     Total:23929      MisBP:13   MisRate:0.05%    MPKI:0.00
PC:12224     Total:31      MisBP:17   MisRate:54.84%    MPKI:0.00
PC:1221c     Total:67022      MisBP:27   MisRate:0.04%    MPKI:0.00
PC:11e60     Total:9979      MisBP:33   MisRate:0.33%    MPKI:0.00
PC:1211e     Total:53474      MisBP:41   MisRate:0.08%    MPKI:0.00
PC:1207e     Total:10242      MisBP:44   MisRate:0.43%    MPKI:0.00
PC:120ce     Total:6355      MisBP:54   MisRate:0.85%    MPKI:0.00
PC:121ae     Total:6685      MisBP:56   MisRate:0.84%    MPKI:0.00
PC:11f7a     Total:23328      MisBP:57   MisRate:0.24%    MPKI:0.00
PC:12178     Total:26383      MisBP:100   MisRate:0.38%    MPKI:0.00
PC:11e7e     Total:2435      MisBP:221   MisRate:9.08%    MPKI:0.00
PC:123d8     Total:15020      MisBP:661   MisRate:4.40%    MPKI:0.00
PC:1215e     Total:25905      MisBP:695   MisRate:2.68%    MPKI:0.00
PC:12430     Total:4001      MisBP:720   MisRate:18.00%    MPKI:0.00
PC:123f8     Total:4385      MisBP:786   MisRate:17.92%    MPKI:0.00
PC:12476     Total:4339      MisBP:792   MisRate:18.25%    MPKI:0.00
PC:11e6a     Total:9992      MisBP:865   MisRate:8.66%    MPKI:0.00
PC:11f64     Total:7777      MisBP:962   MisRate:12.37%    MPKI:0.00
PC:124aa     Total:4927      MisBP:983   MisRate:19.95%    MPKI:0.00
PC:12102     Total:52489      MisBP:1288   MisRate:2.45%    MPKI:0.00
PC:11f08     Total:9290      MisBP:1470   MisRate:15.82%    MPKI:0.00
PC:11ae6     Total:3262056      MisBP:1619   MisRate:0.05%    MPKI:0.01
PC:12242     Total:11675      MisBP:1652   MisRate:14.15%    MPKI:0.01
PC:11ad0     Total:3274845      MisBP:2176   MisRate:0.07%    MPKI:0.01
PC:12030     Total:243908      MisBP:2491   MisRate:1.02%    MPKI:0.01
PC:12418     Total:58788      MisBP:2588   MisRate:4.40%    MPKI:0.01
PC:122f2     Total:106733      MisBP:2819   MisRate:2.64%    MPKI:0.01
PC:12454     Total:43950      MisBP:2967   MisRate:6.75%    MPKI:0.01
PC:11ec8     Total:18520      MisBP:3325   MisRate:17.95%    MPKI:0.01
PC:11a5e     Total:3333196      MisBP:3451   MisRate:0.10%    MPKI:0.01
PC:11a98     Total:3301819      MisBP:3463   MisRate:0.10%    MPKI:0.01
PC:11aee     Total:3252153      MisBP:3641   MisRate:0.11%    MPKI:0.01
PC:11a6c     Total:3327909      MisBP:4060   MisRate:0.12%    MPKI:0.01
PC:11a82     Total:3313032      MisBP:4152   MisRate:0.13%    MPKI:0.01
PC:11ada     Total:3263150      MisBP:4212   MisRate:0.13%    MPKI:0.01
PC:11aae     Total:3294344      MisBP:4637   MisRate:0.14%    MPKI:0.01
PC:11a3a     Total:3353933      MisBP:4867   MisRate:0.15%    MPKI:0.02
PC:11aba     Total:3292587      MisBP:5067   MisRate:0.15%    MPKI:0.02
PC:11ac4     Total:3276438      MisBP:5165   MisRate:0.16%    MPKI:0.02
PC:11a4a     Total:3342098      MisBP:5484   MisRate:0.16%    MPKI:0.02
PC:11f5c     Total:614180      MisBP:5588   MisRate:0.91%    MPKI:0.02
PC:11a78     Total:3323264      MisBP:5793   MisRate:0.17%    MPKI:0.02
PC:1236c     Total:111281      MisBP:6007   MisRate:5.40%    MPKI:0.02
PC:11a28     Total:124580      MisBP:6163   MisRate:4.95%    MPKI:0.02
PC:1234a     Total:87111      MisBP:6224   MisRate:7.14%    MPKI:0.02
PC:11aa4     Total:3300050      MisBP:6277   MisRate:0.19%    MPKI:0.02
PC:123ba     Total:71035      MisBP:6383   MisRate:8.99%    MPKI:0.02
PC:11a8e     Total:3309761      MisBP:6910   MisRate:0.21%    MPKI:0.02
PC:123c4     Total:20054      MisBP:7355   MisRate:36.68%    MPKI:0.02
PC:119fc     Total:261859      MisBP:7408   MisRate:2.83%    MPKI:0.02
PC:12314     Total:123565      MisBP:7535   MisRate:6.10%    MPKI:0.02
PC:122be     Total:99925      MisBP:7719   MisRate:7.72%    MPKI:0.02
PC:11a20     Total:156685      MisBP:10397   MisRate:6.64%    MPKI:0.03
PC:12250     Total:89575      MisBP:11026   MisRate:12.31%    MPKI:0.04
PC:119f4     Total:274571      MisBP:11071   MisRate:4.03%    MPKI:0.04
PC:119e4     Total:318789      MisBP:13141   MisRate:4.12%    MPKI:0.04
PC:119dc     Total:350070      MisBP:14681   MisRate:4.19%    MPKI:0.05
PC:119d4     Total:373251      MisBP:18086   MisRate:4.85%    MPKI:0.06
PC:12014     Total:168714      MisBP:18175   MisRate:10.77%    MPKI:0.06
PC:119ec     Total:298812      MisBP:18713   MisRate:6.26%    MPKI:0.06
PC:11a04     Total:238792      MisBP:19401   MisRate:8.12%    MPKI:0.06
PC:119cc     Total:418919      MisBP:19751   MisRate:4.71%    MPKI:0.06
PC:12042     Total:188341      MisBP:19960   MisRate:10.60%    MPKI:0.06
PC:11a0c     Total:214856      MisBP:25532   MisRate:11.88%    MPKI:0.08
PC:11f40     Total:576333      MisBP:28949   MisRate:5.02%    MPKI:0.09
PC:119b6     Total:529413      MisBP:28989   MisRate:5.48%    MPKI:0.09
PC:12040     Total:267676      MisBP:31931   MisRate:11.93%    MPKI:0.10
PC:1238c     Total:144670      MisBP:35829   MisRate:24.77%    MPKI:0.12
PC:12334     Total:167940      MisBP:38210   MisRate:22.75%    MPKI:0.12
PC:122dc     Total:151566      MisBP:42028   MisRate:27.73%    MPKI:0.14
Totfetch:344439363  TotInsts:310000002  TotMis : inf%   MPKI : 1.82
=============finish sim!!!!!!=============
Done running SimPoint!
