Global frequency set at 1000000000000 ticks per second
 Register [printBranch()] ExitCallback !!!!!!! 
gem5 Simulator System.  https://www.gem5.org
gem5 is copyrighted software; use the --copyright option for details.

gem5 version 22.0.0.2
gem5 compiled Sep  7 2022 00:42:18
gem5 started Sep  7 2022 04:44:11
gem5 executing on a100, pid 2790181
command line: /data/zxf/gem5/gem5-prof/build/ARM/gem5.fast --outdir=/data/zxf/checkpoint/spec2006/401.bzip2/prof/bzip2_ckp_10 /data/zxf/gem5/gem5-prof/configs/example/se.py --cpu-type O3CPU --cpu-clock 1GHz --num-cpu 1 --l1d-hwp-type=BOPPrefetcher --caches --l2cache --l1i_size 32kB --l1d_size 32kB --l2_size 1MB --l1i_assoc 8 --l1d_assoc 8 --l2_assoc 16 --cacheline_size 64 --mem-type DDR3_2133_8x8 --mem-size 16GB --restore-simpoint-checkpoint -r 10 --checkpoint-dir /data/zxf/checkpoint/spec2006/401.bzip2/ckpt -c bzip2_base.gcc41-64bit -o 'input.source 280'

info: Standard input is not a terminal, disabling listeners.
Resuming from /data/zxf/checkpoint/spec2006/401.bzip2/ckpt/cpt.simpoint_09_inst_173990000000_weight_0.073018_interval_300000000_warmup_10000000
Resuming from SimPoint #9, start_inst:173990000000, weight:0.073018, interval:300000000, warmup:10000000
Switch at curTick count:10000
Switched CPUS @ tick 107328882074500
[(<m5.objects.ArmCPU.ArmAtomicSimpleCPU object at 0x7f85d359bbb0>, <m5.objects.ArmCPU.ArmO3CPU object at 0x7f85d35b3e20>)]
switching cpus



+++++++++++++++++++++++++zxf print simpoint+++++++++++++++++++++++++++
Warmed up! Dumping and resetting stats!


=============start sim!!!!!!=============
PC:1697c     Total:9      MisBP:0   MisRate:0.00%    MPKI:0.00
PC:1698c     Total:1      MisBP:0   MisRate:0.00%    MPKI:0.00
PC:12f64     Total:2      MisBP:0   MisRate:0.00%    MPKI:0.00
PC:15722     Total:44697      MisBP:0   MisRate:0.00%    MPKI:0.00
PC:141ca     Total:1      MisBP:0   MisRate:0.00%    MPKI:0.00
PC:1920c     Total:7      MisBP:0   MisRate:0.00%    MPKI:0.00
PC:16988     Total:1      MisBP:0   MisRate:0.00%    MPKI:0.00
PC:1571e     Total:44753      MisBP:0   MisRate:0.00%    MPKI:0.00
PC:1571a     Total:44688      MisBP:0   MisRate:0.00%    MPKI:0.00
PC:15716     Total:44688      MisBP:0   MisRate:0.00%    MPKI:0.00
PC:141be     Total:3      MisBP:0   MisRate:0.00%    MPKI:0.00
PC:19200     Total:7      MisBP:0   MisRate:0.00%    MPKI:0.00
PC:19210     Total:7      MisBP:0   MisRate:0.00%    MPKI:0.00
PC:15712     Total:44723      MisBP:0   MisRate:0.00%    MPKI:0.00
PC:29500     Total:2231      MisBP:0   MisRate:0.00%    MPKI:0.00
PC:153f8     Total:44029      MisBP:0   MisRate:0.00%    MPKI:0.00
PC:15710     Total:44724      MisBP:0   MisRate:0.00%    MPKI:0.00
PC:141ba     Total:3      MisBP:0   MisRate:0.00%    MPKI:0.00
PC:191fc     Total:7      MisBP:0   MisRate:0.00%    MPKI:0.00
PC:16978     Total:984      MisBP:0   MisRate:0.00%    MPKI:0.00
PC:1570e     Total:44724      MisBP:0   MisRate:0.00%    MPKI:0.00
PC:294fc     Total:179      MisBP:0   MisRate:0.00%    MPKI:0.00
PC:153f4     Total:44030      MisBP:0   MisRate:0.00%    MPKI:0.00
PC:1570c     Total:44726      MisBP:0   MisRate:0.00%    MPKI:0.00
PC:15732     Total:44793      MisBP:0   MisRate:0.00%    MPKI:0.00
PC:169a2     Total:1      MisBP:0   MisRate:0.00%    MPKI:0.00
PC:29528     Total:2231      MisBP:0   MisRate:0.00%    MPKI:0.00
PC:12f7a     Total:2      MisBP:0   MisRate:0.00%    MPKI:0.00
PC:15738     Total:44760      MisBP:0   MisRate:0.00%    MPKI:0.00
PC:12f78     Total:2      MisBP:0   MisRate:0.00%    MPKI:0.00
PC:15736     Total:44761      MisBP:0   MisRate:0.00%    MPKI:0.00
PC:29524     Total:2231      MisBP:0   MisRate:0.00%    MPKI:0.00
PC:15734     Total:44787      MisBP:0   MisRate:0.00%    MPKI:0.00
PC:141de     Total:1      MisBP:0   MisRate:0.00%    MPKI:0.00
PC:1699c     Total:1      MisBP:0   MisRate:0.00%    MPKI:0.00
PC:12f74     Total:2      MisBP:0   MisRate:0.00%    MPKI:0.00
PC:29814     Total:98      MisBP:0   MisRate:0.00%    MPKI:0.00
PC:16998     Total:10      MisBP:0   MisRate:0.00%    MPKI:0.00
PC:141d4     Total:1      MisBP:0   MisRate:0.00%    MPKI:0.00
PC:16992     Total:1      MisBP:0   MisRate:0.00%    MPKI:0.00
PC:29518     Total:2231      MisBP:0   MisRate:0.00%    MPKI:0.00
PC:15410     Total:15      MisBP:0   MisRate:0.00%    MPKI:0.00
PC:12f6a     Total:2      MisBP:0   MisRate:0.00%    MPKI:0.00
PC:15728     Total:44647      MisBP:0   MisRate:0.00%    MPKI:0.00
PC:12f68     Total:2      MisBP:0   MisRate:0.00%    MPKI:0.00
PC:15726     Total:44694      MisBP:0   MisRate:0.00%    MPKI:0.00
PC:141ce     Total:1      MisBP:0   MisRate:0.00%    MPKI:0.00
PC:1418e     Total:2      MisBP:0   MisRate:0.00%    MPKI:0.00
PC:16952     Total:989      MisBP:0   MisRate:0.00%    MPKI:0.00
PC:294d8     Total:179      MisBP:0   MisRate:0.00%    MPKI:0.00
PC:12f2a     Total:1      MisBP:0   MisRate:0.00%    MPKI:0.00
PC:156e8     Total:44700      MisBP:0   MisRate:0.00%    MPKI:0.00
PC:297f0     Total:9040      MisBP:0   MisRate:0.00%    MPKI:0.00
PC:1910c     Total:6      MisBP:0   MisRate:0.00%    MPKI:0.00
PC:1694e     Total:989      MisBP:0   MisRate:0.00%    MPKI:0.00
PC:294d4     Total:179      MisBP:0   MisRate:0.00%    MPKI:0.00
PC:12f26     Total:1      MisBP:0   MisRate:0.00%    MPKI:0.00
PC:156e4     Total:44558      MisBP:0   MisRate:0.00%    MPKI:0.00
PC:297ec     Total:3016      MisBP:0   MisRate:0.00%    MPKI:0.00
PC:14194     Total:2      MisBP:0   MisRate:0.00%    MPKI:0.00
PC:1694c     Total:989      MisBP:0   MisRate:0.00%    MPKI:0.00
PC:294d0     Total:167      MisBP:0   MisRate:0.00%    MPKI:0.00
PC:12f22     Total:1      MisBP:0   MisRate:0.00%    MPKI:0.00
PC:156e0     Total:44558      MisBP:0   MisRate:0.00%    MPKI:0.00
PC:297e8     Total:77      MisBP:0   MisRate:0.00%    MPKI:0.00
PC:16948     Total:989      MisBP:0   MisRate:0.00%    MPKI:0.00
PC:12f20     Total:1      MisBP:0   MisRate:0.00%    MPKI:0.00
PC:156de     Total:44558      MisBP:0   MisRate:0.00%    MPKI:0.00
PC:156da     Total:44558      MisBP:0   MisRate:0.00%    MPKI:0.00
PC:12f18     Total:4      MisBP:0   MisRate:0.00%    MPKI:0.00
PC:156fc     Total:44711      MisBP:0   MisRate:0.00%    MPKI:0.00
PC:16972     Total:984      MisBP:0   MisRate:0.00%    MPKI:0.00
PC:294f8     Total:179      MisBP:0   MisRate:0.00%    MPKI:0.00
PC:153f0     Total:44032      MisBP:0   MisRate:0.00%    MPKI:0.00
PC:15708     Total:44540      MisBP:0   MisRate:0.00%    MPKI:0.00
PC:29810     Total:50      MisBP:0   MisRate:0.00%    MPKI:0.00
PC:294f4     Total:179      MisBP:0   MisRate:0.00%    MPKI:0.00
PC:153ec     Total:44036      MisBP:0   MisRate:0.00%    MPKI:0.00
PC:294f0     Total:179      MisBP:0   MisRate:0.00%    MPKI:0.00
PC:153e8     Total:11      MisBP:0   MisRate:0.00%    MPKI:0.00
PC:294ec     Total:179      MisBP:0   MisRate:0.00%    MPKI:0.00
PC:153e4     Total:11      MisBP:0   MisRate:0.00%    MPKI:0.00
PC:1573e     Total:44594      MisBP:0   MisRate:0.00%    MPKI:0.00
PC:141a4     Total:212      MisBP:0   MisRate:0.00%    MPKI:0.00
PC:191e6     Total:5      MisBP:0   MisRate:0.00%    MPKI:0.00
PC:16962     Total:988      MisBP:0   MisRate:0.00%    MPKI:0.00
PC:294e0     Total:179      MisBP:0   MisRate:0.00%    MPKI:0.00
PC:153d8     Total:11      MisBP:0   MisRate:0.00%    MPKI:0.00
PC:156f0     Total:44659      MisBP:0   MisRate:0.00%    MPKI:0.00
PC:297f8     Total:8974      MisBP:0   MisRate:0.00%    MPKI:0.00
PC:294dc     Total:179      MisBP:0   MisRate:0.00%    MPKI:0.00
PC:156ec     Total:44659      MisBP:0   MisRate:0.00%    MPKI:0.00
PC:297f4     Total:8999      MisBP:0   MisRate:0.00%    MPKI:0.00
PC:131ae     Total:1      MisBP:0   MisRate:0.00%    MPKI:0.00
PC:2979c     Total:59      MisBP:0   MisRate:0.00%    MPKI:0.00
PC:15694     Total:44359      MisBP:0   MisRate:0.00%    MPKI:0.00
PC:159ac     Total:43383      MisBP:0   MisRate:0.00%    MPKI:0.00
PC:159a6     Total:43377      MisBP:0   MisRate:0.00%    MPKI:0.00
PC:190e4     Total:6      MisBP:0   MisRate:0.00%    MPKI:0.00
PC:140a2     Total:159      MisBP:0   MisRate:0.00%    MPKI:0.00
PC:1598e     Total:43258      MisBP:0   MisRate:0.00%    MPKI:0.00
PC:15976     Total:43269      MisBP:0   MisRate:0.00%    MPKI:0.00
PC:15972     Total:43269      MisBP:0   MisRate:0.00%    MPKI:0.00
PC:2975c     Total:159      MisBP:0   MisRate:0.00%    MPKI:0.00
PC:15654     Total:43989      MisBP:0   MisRate:0.00%    MPKI:0.00
PC:159b2     Total:43384      MisBP:0   MisRate:0.00%    MPKI:0.00
PC:1596c     Total:43274      MisBP:0   MisRate:0.00%    MPKI:0.00
PC:29754     Total:159      MisBP:0   MisRate:0.00%    MPKI:0.00
PC:1564c     Total:43993      MisBP:0   MisRate:0.00%    MPKI:0.00
PC:131a6     Total:1      MisBP:0   MisRate:0.00%    MPKI:0.00
PC:15964     Total:43274      MisBP:0   MisRate:0.00%    MPKI:0.00
PC:29750     Total:159      MisBP:0   MisRate:0.00%    MPKI:0.00
PC:15648     Total:43993      MisBP:0   MisRate:0.00%    MPKI:0.00
PC:131a2     Total:1      MisBP:0   MisRate:0.00%    MPKI:0.00
PC:15960     Total:43274      MisBP:0   MisRate:0.00%    MPKI:0.00
PC:1319c     Total:1      MisBP:0   MisRate:0.00%    MPKI:0.00
PC:15a0e     Total:43907      MisBP:0   MisRate:0.00%    MPKI:0.00
PC:15a5e     Total:43904      MisBP:0   MisRate:0.00%    MPKI:0.00
PC:1919c     Total:6      MisBP:0   MisRate:0.00%    MPKI:0.00
PC:15a5a     Total:43904      MisBP:0   MisRate:0.00%    MPKI:0.00
PC:19198     Total:6      MisBP:0   MisRate:0.00%    MPKI:0.00
PC:14156     Total:211      MisBP:0   MisRate:0.00%    MPKI:0.00
PC:15a56     Total:43910      MisBP:0   MisRate:0.00%    MPKI:0.00
PC:19194     Total:6      MisBP:0   MisRate:0.00%    MPKI:0.00
PC:14152     Total:211      MisBP:0   MisRate:0.00%    MPKI:0.00
PC:29808     Total:150      MisBP:0   MisRate:0.00%    MPKI:0.00
PC:15700     Total:44540      MisBP:0   MisRate:0.00%    MPKI:0.00
PC:15a18     Total:43926      MisBP:0   MisRate:0.00%    MPKI:0.00
PC:1595a     Total:43274      MisBP:0   MisRate:0.00%    MPKI:0.00
PC:1914c     Total:6      MisBP:0   MisRate:0.00%    MPKI:0.00
PC:159ce     Total:43495      MisBP:0   MisRate:0.00%    MPKI:0.00
PC:159be     Total:43445      MisBP:0   MisRate:0.00%    MPKI:0.00
PC:14180     Total:2      MisBP:0   MisRate:0.00%    MPKI:0.00
PC:191c2     Total:6      MisBP:0   MisRate:0.00%    MPKI:0.00
PC:159ba     Total:43445      MisBP:0   MisRate:0.00%    MPKI:0.00
PC:1417c     Total:47      MisBP:0   MisRate:0.00%    MPKI:0.00
PC:191be     Total:6      MisBP:0   MisRate:0.00%    MPKI:0.00
PC:190f8     Total:6      MisBP:0   MisRate:0.00%    MPKI:0.00
PC:140b6     Total:159      MisBP:0   MisRate:0.00%    MPKI:0.00
PC:15cee     Total:43946      MisBP:0   MisRate:0.00%    MPKI:0.00
PC:15464     Total:494192      MisBP:0   MisRate:0.00%    MPKI:0.00
PC:2956c     Total:2229      MisBP:0   MisRate:0.00%    MPKI:0.00
PC:29250     Total:35      MisBP:0   MisRate:0.00%    MPKI:0.00
PC:15148     Total:45      MisBP:0   MisRate:0.00%    MPKI:0.00
PC:15460     Total:494195      MisBP:0   MisRate:0.00%    MPKI:0.00
PC:29568     Total:2229      MisBP:0   MisRate:0.00%    MPKI:0.00
PC:15d04     Total:43919      MisBP:0   MisRate:0.00%    MPKI:0.00
PC:2924a     Total:36      MisBP:0   MisRate:0.00%    MPKI:0.00
PC:1545a     Total:900948      MisBP:0   MisRate:0.00%    MPKI:0.00
PC:15cf4     Total:43902      MisBP:0   MisRate:0.00%    MPKI:0.00
PC:1544a     Total:43827      MisBP:0   MisRate:0.00%    MPKI:0.00
PC:29254     Total:32      MisBP:0   MisRate:0.00%    MPKI:0.00
PC:2954c     Total:2229      MisBP:0   MisRate:0.00%    MPKI:0.00
PC:15cea     Total:43950      MisBP:0   MisRate:0.00%    MPKI:0.00
PC:29548     Total:2229      MisBP:0   MisRate:0.00%    MPKI:0.00
PC:169bc     Total:1      MisBP:0   MisRate:0.00%    MPKI:0.00
PC:169b8     Total:1      MisBP:0   MisRate:0.00%    MPKI:0.00
PC:1574a     Total:44640      MisBP:0   MisRate:0.00%    MPKI:0.00
PC:15746     Total:44660      MisBP:0   MisRate:0.00%    MPKI:0.00
PC:169ac     Total:1      MisBP:0   MisRate:0.00%    MPKI:0.00
PC:15742     Total:44660      MisBP:0   MisRate:0.00%    MPKI:0.00
PC:169a8     Total:1      MisBP:0   MisRate:0.00%    MPKI:0.00
PC:15624     Total:43803      MisBP:0   MisRate:0.00%    MPKI:0.00
PC:29740     Total:160      MisBP:0   MisRate:0.00%    MPKI:0.00
PC:15638     Total:43932      MisBP:0   MisRate:0.00%    MPKI:0.00
PC:13192     Total:642      MisBP:0   MisRate:0.00%    MPKI:0.00
PC:15950     Total:43276      MisBP:0   MisRate:0.00%    MPKI:0.00
PC:2973c     Total:162      MisBP:0   MisRate:0.00%    MPKI:0.00
PC:15634     Total:43938      MisBP:0   MisRate:0.00%    MPKI:0.00
PC:1594c     Total:43276      MisBP:0   MisRate:0.00%    MPKI:0.00
PC:29734     Total:162      MisBP:0   MisRate:0.00%    MPKI:0.00
PC:1562c     Total:43801      MisBP:0   MisRate:0.00%    MPKI:0.00
PC:15944     Total:43276      MisBP:0   MisRate:0.00%    MPKI:0.00
PC:2972c     Total:162      MisBP:0   MisRate:0.00%    MPKI:0.00
PC:156d6     Total:44558      MisBP:0   MisRate:0.00%    MPKI:0.00
PC:1317e     Total:2030      MisBP:0   MisRate:0.00%    MPKI:0.00
PC:1593c     Total:43292      MisBP:0   MisRate:0.00%    MPKI:0.00
PC:2926a     Total:17      MisBP:0   MisRate:0.00%    MPKI:0.00
PC:15162     Total:44      MisBP:0   MisRate:0.00%    MPKI:0.00
PC:1547a     Total:47019      MisBP:0   MisRate:0.00%    MPKI:0.00
PC:15d1a     Total:43961      MisBP:0   MisRate:0.00%    MPKI:0.00
PC:29260     Total:7      MisBP:0   MisRate:0.00%    MPKI:0.00
PC:15158     Total:44      MisBP:0   MisRate:0.00%    MPKI:0.00
PC:1546a     Total:494145      MisBP:0   MisRate:0.00%    MPKI:0.00
PC:15d0e     Total:43982      MisBP:0   MisRate:0.00%    MPKI:0.00
PC:29378     Total:34      MisBP:0   MisRate:0.00%    MPKI:0.00
PC:294c8     Total:167      MisBP:0   MisRate:0.00%    MPKI:0.00
PC:15c64     Total:44464      MisBP:0   MisRate:0.00%    MPKI:0.00
PC:153ba     Total:46      MisBP:0   MisRate:0.00%    MPKI:0.00
PC:15c5e     Total:44593      MisBP:0   MisRate:0.00%    MPKI:0.00
PC:153b4     Total:46      MisBP:0   MisRate:0.00%    MPKI:0.00
PC:294bc     Total:336      MisBP:0   MisRate:0.00%    MPKI:0.00
PC:153aa     Total:8      MisBP:0   MisRate:0.00%    MPKI:0.00
PC:15b1e     Total:44549      MisBP:0   MisRate:0.00%    MPKI:0.00
PC:164de     Total:44083      MisBP:0   MisRate:0.00%    MPKI:0.00
PC:15b1a     Total:44549      MisBP:0   MisRate:0.00%    MPKI:0.00
PC:15270     Total:16      MisBP:0   MisRate:0.00%    MPKI:0.00
PC:153c0     Total:5896      MisBP:0   MisRate:0.00%    MPKI:0.00
PC:1dc14     Total:19      MisBP:0   MisRate:0.00%    MPKI:0.00
PC:18bd2     Total:10084      MisBP:0   MisRate:0.00%    MPKI:0.00
PC:164da     Total:44083      MisBP:0   MisRate:0.00%    MPKI:0.00
PC:15b18     Total:44365      MisBP:0   MisRate:0.00%    MPKI:0.00
PC:1526e     Total:16      MisBP:0   MisRate:0.00%    MPKI:0.00
PC:1dc12     Total:38      MisBP:0   MisRate:0.00%    MPKI:0.00
PC:18c96     Total:9094      MisBP:0   MisRate:0.00%    MPKI:0.00
PC:164d8     Total:44083      MisBP:0   MisRate:0.00%    MPKI:0.00
PC:15b14     Total:44321      MisBP:0   MisRate:0.00%    MPKI:0.00
PC:18c7e     Total:46898      MisBP:0   MisRate:0.00%    MPKI:0.00
PC:153d6     Total:11      MisBP:0   MisRate:0.00%    MPKI:0.00
PC:153ea     Total:44036      MisBP:0   MisRate:0.00%    MPKI:0.00
PC:15c92     Total:43963      MisBP:0   MisRate:0.00%    MPKI:0.00
PC:15c90     Total:44024      MisBP:0   MisRate:0.00%    MPKI:0.00
PC:153e6     Total:11      MisBP:0   MisRate:0.00%    MPKI:0.00
PC:15c8e     Total:44024      MisBP:0   MisRate:0.00%    MPKI:0.00
PC:15c8a     Total:44024      MisBP:0   MisRate:0.00%    MPKI:0.00
PC:15c88     Total:44025      MisBP:0   MisRate:0.00%    MPKI:0.00
PC:153de     Total:11      MisBP:0   MisRate:0.00%    MPKI:0.00
PC:153da     Total:11      MisBP:0   MisRate:0.00%    MPKI:0.00
PC:15c82     Total:44091      MisBP:0   MisRate:0.00%    MPKI:0.00
PC:15c80     Total:44091      MisBP:0   MisRate:0.00%    MPKI:0.00
PC:1dbfa     Total:600      MisBP:0   MisRate:0.00%    MPKI:0.00
PC:15c7c     Total:44303      MisBP:0   MisRate:0.00%    MPKI:0.00
PC:15c78     Total:44303      MisBP:0   MisRate:0.00%    MPKI:0.00
PC:153ce     Total:7      MisBP:0   MisRate:0.00%    MPKI:0.00
PC:15c76     Total:44303      MisBP:0   MisRate:0.00%    MPKI:0.00
PC:15c74     Total:44448      MisBP:0   MisRate:0.00%    MPKI:0.00
PC:153ca     Total:39      MisBP:0   MisRate:0.00%    MPKI:0.00
PC:15c6e     Total:44526      MisBP:0   MisRate:0.00%    MPKI:0.00
PC:153c4     Total:39      MisBP:0   MisRate:0.00%    MPKI:0.00
PC:294cc     Total:334      MisBP:0   MisRate:0.00%    MPKI:0.00
PC:15c6a     Total:44527      MisBP:0   MisRate:0.00%    MPKI:0.00
PC:1525c     Total:16      MisBP:0   MisRate:0.00%    MPKI:0.00
PC:164ca     Total:44205      MisBP:0   MisRate:0.00%    MPKI:0.00
PC:1334a     Total:16      MisBP:0   MisRate:0.00%    MPKI:0.00
PC:15b08     Total:44268      MisBP:0   MisRate:0.00%    MPKI:0.00
PC:12aa0     Total:1      MisBP:0   MisRate:0.00%    MPKI:0.00
PC:1525e     Total:16      MisBP:0   MisRate:0.00%    MPKI:0.00
PC:164c8     Total:44211      MisBP:0   MisRate:0.00%    MPKI:0.00
PC:15b06     Total:44268      MisBP:0   MisRate:0.00%    MPKI:0.00
PC:18c70     Total:48205      MisBP:0   MisRate:0.00%    MPKI:0.00
PC:1dbec     Total:2590      MisBP:0   MisRate:0.00%    MPKI:0.00
PC:18baa     Total:59      MisBP:0   MisRate:0.00%    MPKI:0.00
PC:12a9e     Total:1      MisBP:0   MisRate:0.00%    MPKI:0.00
PC:29368     Total:32      MisBP:0   MisRate:0.00%    MPKI:0.00
PC:29364     Total:32      MisBP:0   MisRate:0.00%    MPKI:0.00
PC:18c84     Total:45452      MisBP:0   MisRate:0.00%    MPKI:0.00
PC:164c6     Total:44051      MisBP:0   MisRate:0.00%    MPKI:0.00
PC:15b04     Total:44268      MisBP:0   MisRate:0.00%    MPKI:0.00
PC:12a9c     Total:1      MisBP:0   MisRate:0.00%    MPKI:0.00
PC:1525a     Total:4      MisBP:0   MisRate:0.00%    MPKI:0.00
PC:10218     Total:2      MisBP:0   MisRate:0.00%    MPKI:0.00
PC:18c82     Total:45530      MisBP:0   MisRate:0.00%    MPKI:0.00
PC:164c4     Total:44051      MisBP:0   MisRate:0.00%    MPKI:0.00
PC:13344     Total:209      MisBP:0   MisRate:0.00%    MPKI:0.00
PC:18c78     Total:47780      MisBP:0   MisRate:0.00%    MPKI:0.00
PC:18bb8     Total:10711      MisBP:0   MisRate:0.00%    MPKI:0.00
PC:1526a     Total:16      MisBP:0   MisRate:0.00%    MPKI:0.00
PC:1dc0e     Total:19      MisBP:0   MisRate:0.00%    MPKI:0.00
PC:18bcc     Total:10430      MisBP:0   MisRate:0.00%    MPKI:0.00
PC:164d4     Total:44089      MisBP:0   MisRate:0.00%    MPKI:0.00
PC:13352     Total:276      MisBP:0   MisRate:0.00%    MPKI:0.00
PC:15b10     Total:44321      MisBP:0   MisRate:0.00%    MPKI:0.00
PC:15266     Total:16      MisBP:0   MisRate:0.00%    MPKI:0.00
PC:18c8e     Total:9115      MisBP:0   MisRate:0.00%    MPKI:0.00
PC:164d0     Total:44205      MisBP:0   MisRate:0.00%    MPKI:0.00
PC:15b0e     Total:44334      MisBP:0   MisRate:0.00%    MPKI:0.00
PC:15c96     Total:43963      MisBP:0   MisRate:0.00%    MPKI:0.00
PC:1dbf4     Total:1200      MisBP:0   MisRate:0.00%    MPKI:0.00
PC:18bb2     Total:10772      MisBP:0   MisRate:0.00%    MPKI:0.00
PC:15264     Total:16      MisBP:0   MisRate:0.00%    MPKI:0.00
PC:2936c     Total:32      MisBP:0   MisRate:0.00%    MPKI:0.00
PC:1334c     Total:16      MisBP:0   MisRate:0.00%    MPKI:0.00
PC:15b0a     Total:44268      MisBP:0   MisRate:0.00%    MPKI:0.00
PC:18c74     Total:47917      MisBP:0   MisRate:0.00%    MPKI:0.00
PC:1dbf0     Total:643      MisBP:0   MisRate:0.00%    MPKI:0.00
PC:18bae     Total:59      MisBP:0   MisRate:0.00%    MPKI:0.00
PC:15260     Total:16      MisBP:0   MisRate:0.00%    MPKI:0.00
PC:29498     Total:9      MisBP:0   MisRate:0.00%    MPKI:0.00
PC:16928     Total:6      MisBP:0   MisRate:0.00%    MPKI:0.00
PC:156ba     Total:44613      MisBP:0   MisRate:0.00%    MPKI:0.00
PC:156b6     Total:44613      MisBP:0   MisRate:0.00%    MPKI:0.00
PC:1415e     Total:278      MisBP:0   MisRate:0.00%    MPKI:0.00
PC:1691c     Total:6      MisBP:0   MisRate:0.00%    MPKI:0.00
PC:156b2     Total:44621      MisBP:0   MisRate:0.00%    MPKI:0.00
PC:16918     Total:6      MisBP:0   MisRate:0.00%    MPKI:0.00
PC:156ae     Total:44529      MisBP:0   MisRate:0.00%    MPKI:0.00
PC:12eec     Total:6      MisBP:0   MisRate:0.00%    MPKI:0.00
PC:156aa     Total:44529      MisBP:0   MisRate:0.00%    MPKI:0.00
PC:16912     Total:6      MisBP:0   MisRate:0.00%    MPKI:0.00
PC:191ac     Total:6      MisBP:0   MisRate:0.00%    MPKI:0.00
PC:15390     Total:2      MisBP:0   MisRate:0.00%    MPKI:0.00
PC:156a8     Total:44531      MisBP:0   MisRate:0.00%    MPKI:0.00
PC:297b0     Total:118      MisBP:0   MisRate:0.00%    MPKI:0.00
PC:14150     Total:211      MisBP:0   MisRate:0.00%    MPKI:0.00
PC:19192     Total:6      MisBP:0   MisRate:0.00%    MPKI:0.00
PC:190cc     Total:6      MisBP:0   MisRate:0.00%    MPKI:0.00
PC:1690e     Total:6      MisBP:0   MisRate:0.00%    MPKI:0.00
PC:29494     Total:9      MisBP:0   MisRate:0.00%    MPKI:0.00
PC:1538c     Total:2      MisBP:0   MisRate:0.00%    MPKI:0.00
PC:12ee6     Total:6      MisBP:0   MisRate:0.00%    MPKI:0.00
PC:12f0a     Total:4      MisBP:0   MisRate:0.00%    MPKI:0.00
PC:1693c     Total:990      MisBP:0   MisRate:0.00%    MPKI:0.00
PC:12f14     Total:4      MisBP:0   MisRate:0.00%    MPKI:0.00
PC:156d2     Total:44530      MisBP:0   MisRate:0.00%    MPKI:0.00
PC:16938     Total:1980      MisBP:0   MisRate:0.00%    MPKI:0.00
PC:12f10     Total:4      MisBP:0   MisRate:0.00%    MPKI:0.00
PC:156ce     Total:44532      MisBP:0   MisRate:0.00%    MPKI:0.00
PC:12f0c     Total:4      MisBP:0   MisRate:0.00%    MPKI:0.00
PC:156ca     Total:44533      MisBP:0   MisRate:0.00%    MPKI:0.00
PC:14174     Total:71      MisBP:0   MisRate:0.00%    MPKI:0.00
PC:16932     Total:6      MisBP:0   MisRate:0.00%    MPKI:0.00
PC:294b8     Total:168      MisBP:0   MisRate:0.00%    MPKI:0.00
PC:1690c     Total:6      MisBP:0   MisRate:0.00%    MPKI:0.00
PC:12f08     Total:4      MisBP:0   MisRate:0.00%    MPKI:0.00
PC:156c6     Total:44533      MisBP:0   MisRate:0.00%    MPKI:0.00
PC:294b4     Total:336      MisBP:0   MisRate:0.00%    MPKI:0.00
PC:153ac     Total:8      MisBP:0   MisRate:0.00%    MPKI:0.00
PC:12f06     Total:4      MisBP:0   MisRate:0.00%    MPKI:0.00
PC:156c4     Total:44533      MisBP:0   MisRate:0.00%    MPKI:0.00
PC:297cc     Total:77      MisBP:0   MisRate:0.00%    MPKI:0.00
PC:1416e     Total:72      MisBP:0   MisRate:0.00%    MPKI:0.00
PC:1692c     Total:6      MisBP:0   MisRate:0.00%    MPKI:0.00
PC:1416a     Total:72      MisBP:0   MisRate:0.00%    MPKI:0.00
PC:15ca6     Total:43797      MisBP:0   MisRate:0.00%    MPKI:0.00
PC:15cba     Total:43858      MisBP:0   MisRate:0.00%    MPKI:0.00
PC:15cb8     Total:43926      MisBP:0   MisRate:0.00%    MPKI:0.00
PC:1540e     Total:15      MisBP:0   MisRate:0.00%    MPKI:0.00
PC:15cb6     Total:43861      MisBP:0   MisRate:0.00%    MPKI:0.00
PC:1540c     Total:15      MisBP:0   MisRate:0.00%    MPKI:0.00
PC:29514     Total:2231      MisBP:0   MisRate:0.00%    MPKI:0.00
PC:15cb2     Total:43861      MisBP:0   MisRate:0.00%    MPKI:0.00
PC:29510     Total:2231      MisBP:0   MisRate:0.00%    MPKI:0.00
PC:15cae     Total:43799      MisBP:0   MisRate:0.00%    MPKI:0.00
PC:15cac     Total:43793      MisBP:0   MisRate:0.00%    MPKI:0.00
PC:15caa     Total:43797      MisBP:0   MisRate:0.00%    MPKI:0.00
PC:15412     Total:15      MisBP:0   MisRate:0.00%    MPKI:0.00
PC:153fc     Total:1127487      MisBP:0   MisRate:0.00%    MPKI:0.00
PC:29504     Total:2231      MisBP:0   MisRate:0.00%    MPKI:0.00
PC:15ca4     Total:43918      MisBP:0   MisRate:0.00%    MPKI:0.00
PC:153fa     Total:44027      MisBP:0   MisRate:0.00%    MPKI:0.00
PC:18b38     Total:40      MisBP:0   MisRate:0.00%    MPKI:0.00
PC:15ca2     Total:43919      MisBP:0   MisRate:0.00%    MPKI:0.00
PC:15c9e     Total:43919      MisBP:0   MisRate:0.00%    MPKI:0.00
PC:15c9c     Total:43921      MisBP:0   MisRate:0.00%    MPKI:0.00
PC:153f2     Total:44031      MisBP:0   MisRate:0.00%    MPKI:0.00
PC:18b30     Total:40      MisBP:0   MisRate:0.00%    MPKI:0.00
PC:1543a     Total:2888      MisBP:0   MisRate:0.00%    MPKI:0.00
PC:156a2     Total:44539      MisBP:0   MisRate:0.00%    MPKI:0.00
PC:1918c     Total:6      MisBP:0   MisRate:0.00%    MPKI:0.00
PC:16908     Total:6      MisBP:0   MisRate:0.00%    MPKI:0.00
PC:16906     Total:6      MisBP:0   MisRate:0.00%    MPKI:0.00
PC:2948c     Total:9      MisBP:0   MisRate:0.00%    MPKI:0.00
PC:1569c     Total:44359      MisBP:0   MisRate:0.00%    MPKI:0.00
PC:297a4     Total:59      MisBP:0   MisRate:0.00%    MPKI:0.00
PC:14146     Total:254      MisBP:0   MisRate:0.00%    MPKI:0.00
PC:19188     Total:6      MisBP:0   MisRate:0.00%    MPKI:0.00
PC:16904     Total:6      MisBP:0   MisRate:0.00%    MPKI:0.00
PC:15ce4     Total:43840      MisBP:0   MisRate:0.00%    MPKI:0.00
PC:15a62     Total:44013      MisBP:0   MisRate:0.00%    MPKI:0.00
PC:15cda     Total:43926      MisBP:0   MisRate:0.00%    MPKI:0.00
PC:15430     Total:1412      MisBP:0   MisRate:0.00%    MPKI:0.00
PC:29538     Total:2231      MisBP:0   MisRate:0.00%    MPKI:0.00
PC:15cc8     Total:43842      MisBP:0   MisRate:0.00%    MPKI:0.00
PC:1541e     Total:15      MisBP:0   MisRate:0.00%    MPKI:0.00
PC:15cc4     Total:43842      MisBP:0   MisRate:0.00%    MPKI:0.00
PC:1541a     Total:15      MisBP:0   MisRate:0.00%    MPKI:0.00
PC:15cc0     Total:43766      MisBP:0   MisRate:0.00%    MPKI:0.00
PC:15416     Total:15      MisBP:0   MisRate:0.00%    MPKI:0.00
PC:15cbc     Total:43858      MisBP:0   MisRate:0.00%    MPKI:0.00
PC:39822     Total:1      MisBP:0   MisRate:0.00%    MPKI:0.00
PC:18e44     Total:33      MisBP:0   MisRate:0.00%    MPKI:0.00
PC:16684     Total:52      MisBP:0   MisRate:0.00%    MPKI:0.00
PC:18e42     Total:2      MisBP:0   MisRate:0.00%    MPKI:0.00
PC:18e40     Total:2      MisBP:0   MisRate:0.00%    MPKI:0.00
PC:18c46     Total:296      MisBP:0   MisRate:0.00%    MPKI:0.00
PC:1665c     Total:16      MisBP:0   MisRate:0.00%    MPKI:0.00
PC:3982a     Total:1      MisBP:0   MisRate:0.00%    MPKI:0.00
PC:18e1a     Total:43      MisBP:0   MisRate:0.00%    MPKI:0.00
PC:16658     Total:16      MisBP:0   MisRate:0.00%    MPKI:0.00
PC:39826     Total:1      MisBP:0   MisRate:0.00%    MPKI:0.00
PC:16654     Total:17      MisBP:0   MisRate:0.00%    MPKI:0.00
PC:18e48     Total:33      MisBP:0   MisRate:0.00%    MPKI:0.00
PC:18e12     Total:6490      MisBP:0   MisRate:0.00%    MPKI:0.00
PC:16650     Total:17      MisBP:0   MisRate:0.00%    MPKI:0.00
PC:3981e     Total:1      MisBP:0   MisRate:0.00%    MPKI:0.00
PC:18e0e     Total:6490      MisBP:0   MisRate:0.00%    MPKI:0.00
PC:18e0c     Total:6495      MisBP:0   MisRate:0.00%    MPKI:0.00
PC:1664c     Total:17      MisBP:0   MisRate:0.00%    MPKI:0.00
PC:18e0a     Total:6496      MisBP:0   MisRate:0.00%    MPKI:0.00
PC:18e08     Total:6500      MisBP:0   MisRate:0.00%    MPKI:0.00
PC:18dbe     Total:5955      MisBP:0   MisRate:0.00%    MPKI:0.00
PC:165fe     Total:17277      MisBP:0   MisRate:0.00%    MPKI:0.00
PC:18dd2     Total:6025      MisBP:0   MisRate:0.00%    MPKI:0.00
PC:16622     Total:16      MisBP:0   MisRate:0.00%    MPKI:0.00
PC:16620     Total:16      MisBP:0   MisRate:0.00%    MPKI:0.00
PC:397ee     Total:1      MisBP:0   MisRate:0.00%    MPKI:0.00
PC:18dde     Total:6015      MisBP:0   MisRate:0.00%    MPKI:0.00
PC:18ddc     Total:6022      MisBP:0   MisRate:0.00%    MPKI:0.00
PC:1661c     Total:10      MisBP:0   MisRate:0.00%    MPKI:0.00
PC:18dda     Total:6022      MisBP:0   MisRate:0.00%    MPKI:0.00
PC:1661a     Total:10      MisBP:0   MisRate:0.00%    MPKI:0.00
PC:18dd8     Total:6023      MisBP:0   MisRate:0.00%    MPKI:0.00
PC:18dd4     Total:12058      MisBP:0   MisRate:0.00%    MPKI:0.00
PC:16614     Total:10      MisBP:0   MisRate:0.00%    MPKI:0.00
PC:18dbc     Total:5955      MisBP:0   MisRate:0.00%    MPKI:0.00
PC:16612     Total:10      MisBP:0   MisRate:0.00%    MPKI:0.00
PC:16610     Total:10      MisBP:0   MisRate:0.00%    MPKI:0.00
PC:18dce     Total:191338      MisBP:0   MisRate:0.00%    MPKI:0.00
PC:18dca     Total:192171      MisBP:0   MisRate:0.00%    MPKI:0.00
PC:1660a     Total:10      MisBP:0   MisRate:0.00%    MPKI:0.00
PC:18dc8     Total:193212      MisBP:0   MisRate:0.00%    MPKI:0.00
PC:18dc4     Total:193338      MisBP:0   MisRate:0.00%    MPKI:0.00
PC:18dc2     Total:5875      MisBP:0   MisRate:0.00%    MPKI:0.00
PC:16602     Total:34553      MisBP:0   MisRate:0.00%    MPKI:0.00
PC:18e4a     Total:228      MisBP:0   MisRate:0.00%    MPKI:0.00
PC:397a6     Total:1      MisBP:0   MisRate:0.00%    MPKI:0.00
PC:397b2     Total:1      MisBP:0   MisRate:0.00%    MPKI:0.00
PC:18da2     Total:52      MisBP:0   MisRate:0.00%    MPKI:0.00
PC:165e2     Total:15855      MisBP:0   MisRate:0.00%    MPKI:0.00
PC:397b0     Total:1      MisBP:0   MisRate:0.00%    MPKI:0.00
PC:18da0     Total:52      MisBP:0   MisRate:0.00%    MPKI:0.00
PC:18d9c     Total:52      MisBP:0   MisRate:0.00%    MPKI:0.00
PC:165dc     Total:31710      MisBP:0   MisRate:0.00%    MPKI:0.00
PC:397aa     Total:1      MisBP:0   MisRate:0.00%    MPKI:0.00
PC:18d9a     Total:52      MisBP:0   MisRate:0.00%    MPKI:0.00
PC:18d98     Total:52      MisBP:0   MisRate:0.00%    MPKI:0.00
PC:165d8     Total:1      MisBP:0   MisRate:0.00%    MPKI:0.00
PC:165e4     Total:15855      MisBP:0   MisRate:0.00%    MPKI:0.00
PC:18d96     Total:52      MisBP:0   MisRate:0.00%    MPKI:0.00
PC:165d4     Total:1      MisBP:0   MisRate:0.00%    MPKI:0.00
PC:165d0     Total:1      MisBP:0   MisRate:0.00%    MPKI:0.00
PC:3979e     Total:2      MisBP:0   MisRate:0.00%    MPKI:0.00
PC:18d8e     Total:4646      MisBP:0   MisRate:0.00%    MPKI:0.00
PC:18d8a     Total:4646      MisBP:0   MisRate:0.00%    MPKI:0.00
PC:165ca     Total:1      MisBP:0   MisRate:0.00%    MPKI:0.00
PC:39798     Total:2      MisBP:0   MisRate:0.00%    MPKI:0.00
PC:18d88     Total:4646      MisBP:0   MisRate:0.00%    MPKI:0.00
PC:18d86     Total:4646      MisBP:0   MisRate:0.00%    MPKI:0.00
PC:397be     Total:1      MisBP:0   MisRate:0.00%    MPKI:0.00
PC:165fc     Total:18445      MisBP:0   MisRate:0.00%    MPKI:0.00
PC:18dba     Total:5956      MisBP:0   MisRate:0.00%    MPKI:0.00
PC:165fa     Total:11909      MisBP:0   MisRate:0.00%    MPKI:0.00
PC:18db8     Total:5956      MisBP:0   MisRate:0.00%    MPKI:0.00
PC:165f6     Total:53816      MisBP:0   MisRate:0.00%    MPKI:0.00
PC:18db4     Total:11913      MisBP:0   MisRate:0.00%    MPKI:0.00
PC:165f4     Total:53818      MisBP:0   MisRate:0.00%    MPKI:0.00
PC:18db2     Total:51      MisBP:0   MisRate:0.00%    MPKI:0.00
PC:165f2     Total:53844      MisBP:0   MisRate:0.00%    MPKI:0.00
PC:18db0     Total:51      MisBP:0   MisRate:0.00%    MPKI:0.00
PC:165f0     Total:53851      MisBP:0   MisRate:0.00%    MPKI:0.00
PC:397f2     Total:1      MisBP:0   MisRate:0.00%    MPKI:0.00
PC:18dae     Total:51      MisBP:0   MisRate:0.00%    MPKI:0.00
PC:18dac     Total:51      MisBP:0   MisRate:0.00%    MPKI:0.00
PC:165ec     Total:107730      MisBP:0   MisRate:0.00%    MPKI:0.00
PC:397ba     Total:1      MisBP:0   MisRate:0.00%    MPKI:0.00
PC:18daa     Total:51      MisBP:0   MisRate:0.00%    MPKI:0.00
PC:165ea     Total:11008      MisBP:0   MisRate:0.00%    MPKI:0.00
PC:397b8     Total:1      MisBP:0   MisRate:0.00%    MPKI:0.00
PC:18da8     Total:52      MisBP:0   MisRate:0.00%    MPKI:0.00
PC:397b4     Total:1      MisBP:0   MisRate:0.00%    MPKI:0.00
PC:18da4     Total:52      MisBP:0   MisRate:0.00%    MPKI:0.00
PC:1663a     Total:952      MisBP:0   MisRate:0.00%    MPKI:0.00
PC:18e54     Total:14      MisBP:0   MisRate:0.00%    MPKI:0.00
PC:1667e     Total:6      MisBP:0   MisRate:0.00%    MPKI:0.00
PC:1667a     Total:6      MisBP:0   MisRate:0.00%    MPKI:0.00
PC:1666c     Total:10      MisBP:0   MisRate:0.00%    MPKI:0.00
PC:16664     Total:16      MisBP:0   MisRate:0.00%    MPKI:0.00
PC:1665a     Total:16      MisBP:0   MisRate:0.00%    MPKI:0.00
PC:16656     Total:16      MisBP:0   MisRate:0.00%    MPKI:0.00
PC:39824     Total:1      MisBP:0   MisRate:0.00%    MPKI:0.00
PC:16642     Total:944      MisBP:0   MisRate:0.00%    MPKI:0.00
PC:1663e     Total:952      MisBP:0   MisRate:0.00%    MPKI:0.00
PC:3980c     Total:1      MisBP:0   MisRate:0.00%    MPKI:0.00
PC:18e56     Total:84      MisBP:0   MisRate:0.00%    MPKI:0.00
PC:39808     Total:1      MisBP:0   MisRate:0.00%    MPKI:0.00
PC:16636     Total:952      MisBP:0   MisRate:0.00%    MPKI:0.00
PC:39804     Total:1      MisBP:0   MisRate:0.00%    MPKI:0.00
PC:16632     Total:1904      MisBP:0   MisRate:0.00%    MPKI:0.00
PC:1662c     Total:15      MisBP:0   MisRate:0.00%    MPKI:0.00
PC:397fa     Total:2      MisBP:0   MisRate:0.00%    MPKI:0.00
PC:16618     Total:10      MisBP:0   MisRate:0.00%    MPKI:0.00
PC:1660e     Total:10      MisBP:0   MisRate:0.00%    MPKI:0.00
PC:16608     Total:10      MisBP:0   MisRate:0.00%    MPKI:0.00
PC:165e8     Total:11010      MisBP:0   MisRate:0.00%    MPKI:0.00
PC:166aa     Total:8      MisBP:0   MisRate:0.00%    MPKI:0.00
PC:18e7a     Total:13525      MisBP:0   MisRate:0.00%    MPKI:0.00
PC:18e78     Total:13526      MisBP:0   MisRate:0.00%    MPKI:0.00
PC:166b8     Total:7      MisBP:0   MisRate:0.00%    MPKI:0.00
PC:18e76     Total:13526      MisBP:0   MisRate:0.00%    MPKI:0.00
PC:166b4     Total:31      MisBP:0   MisRate:0.00%    MPKI:0.00
PC:18e72     Total:27052      MisBP:0   MisRate:0.00%    MPKI:0.00
PC:18e70     Total:104      MisBP:0   MisRate:0.00%    MPKI:0.00
PC:166b0     Total:32      MisBP:0   MisRate:0.00%    MPKI:0.00
PC:18e6e     Total:104      MisBP:0   MisRate:0.00%    MPKI:0.00
PC:166ae     Total:8      MisBP:0   MisRate:0.00%    MPKI:0.00
PC:18e6c     Total:104      MisBP:0   MisRate:0.00%    MPKI:0.00
PC:397b6     Total:1      MisBP:0   MisRate:0.00%    MPKI:0.00
PC:18e68     Total:104      MisBP:0   MisRate:0.00%    MPKI:0.00
PC:166a6     Total:31      MisBP:0   MisRate:0.00%    MPKI:0.00
PC:18e64     Total:12      MisBP:0   MisRate:0.00%    MPKI:0.00
PC:166a4     Total:31      MisBP:0   MisRate:0.00%    MPKI:0.00
PC:18e62     Total:12      MisBP:0   MisRate:0.00%    MPKI:0.00
PC:18e5e     Total:12      MisBP:0   MisRate:0.00%    MPKI:0.00
PC:1669e     Total:62      MisBP:0   MisRate:0.00%    MPKI:0.00
PC:18e5c     Total:12      MisBP:0   MisRate:0.00%    MPKI:0.00
PC:18e58     Total:15      MisBP:0   MisRate:0.00%    MPKI:0.00
PC:16698     Total:5      MisBP:0   MisRate:0.00%    MPKI:0.00
PC:18df2     Total:30      MisBP:0   MisRate:0.00%    MPKI:0.00
PC:18e04     Total:28      MisBP:0   MisRate:0.00%    MPKI:0.00
PC:39812     Total:1      MisBP:0   MisRate:0.00%    MPKI:0.00
PC:18e02     Total:28      MisBP:0   MisRate:0.00%    MPKI:0.00
PC:16640     Total:944      MisBP:0   MisRate:0.00%    MPKI:0.00
PC:3980e     Total:1      MisBP:0   MisRate:0.00%    MPKI:0.00
PC:18dfe     Total:28      MisBP:0   MisRate:0.00%    MPKI:0.00
PC:1663c     Total:952      MisBP:0   MisRate:0.00%    MPKI:0.00
PC:18dfa     Total:30      MisBP:0   MisRate:0.00%    MPKI:0.00
PC:16638     Total:952      MisBP:0   MisRate:0.00%    MPKI:0.00
PC:39806     Total:1      MisBP:0   MisRate:0.00%    MPKI:0.00
PC:18df6     Total:30      MisBP:0   MisRate:0.00%    MPKI:0.00
PC:16646     Total:17      MisBP:0   MisRate:0.00%    MPKI:0.00
PC:16630     Total:15      MisBP:0   MisRate:0.00%    MPKI:0.00
PC:18dee     Total:30      MisBP:0   MisRate:0.00%    MPKI:0.00
PC:18dec     Total:30      MisBP:0   MisRate:0.00%    MPKI:0.00
PC:1662a     Total:15      MisBP:0   MisRate:0.00%    MPKI:0.00
PC:397f8     Total:2      MisBP:0   MisRate:0.00%    MPKI:0.00
PC:18de8     Total:60      MisBP:0   MisRate:0.00%    MPKI:0.00
PC:16628     Total:15      MisBP:0   MisRate:0.00%    MPKI:0.00
PC:18de6     Total:20      MisBP:0   MisRate:0.00%    MPKI:0.00
PC:18de4     Total:20      MisBP:0   MisRate:0.00%    MPKI:0.00
PC:16624     Total:16      MisBP:0   MisRate:0.00%    MPKI:0.00
PC:15512     Total:8      MisBP:0   MisRate:0.00%    MPKI:0.00
PC:165e0     Total:15855      MisBP:0   MisRate:0.00%    MPKI:0.00
PC:397ae     Total:1      MisBP:0   MisRate:0.00%    MPKI:0.00
PC:165ce     Total:1      MisBP:0   MisRate:0.00%    MPKI:0.00
PC:3979c     Total:2      MisBP:0   MisRate:0.00%    MPKI:0.00
PC:165c2     Total:1      MisBP:0   MisRate:0.00%    MPKI:0.00
PC:39790     Total:2      MisBP:0   MisRate:0.00%    MPKI:0.00
PC:13178     Total:677      MisBP:0   MisRate:0.00%    MPKI:0.00
PC:165a6     Total:1      MisBP:0   MisRate:0.00%    MPKI:0.00
PC:39774     Total:4      MisBP:0   MisRate:0.00%    MPKI:0.00
PC:165a0     Total:1      MisBP:0   MisRate:0.00%    MPKI:0.00
PC:3976e     Total:8      MisBP:0   MisRate:0.00%    MPKI:0.00
PC:165c6     Total:1      MisBP:0   MisRate:0.00%    MPKI:0.00
PC:1550e     Total:8      MisBP:0   MisRate:0.00%    MPKI:0.00
PC:1550c     Total:8      MisBP:0   MisRate:0.00%    MPKI:0.00
PC:29614     Total:2226      MisBP:0   MisRate:0.00%    MPKI:0.00
PC:15508     Total:8      MisBP:0   MisRate:0.00%    MPKI:0.00
PC:29610     Total:2226      MisBP:0   MisRate:0.00%    MPKI:0.00
PC:2960c     Total:2226      MisBP:0   MisRate:0.00%    MPKI:0.00
PC:15502     Total:8      MisBP:0   MisRate:0.00%    MPKI:0.00
PC:16648     Total:17      MisBP:0   MisRate:0.00%    MPKI:0.00
PC:39816     Total:1      MisBP:0   MisRate:0.00%    MPKI:0.00
PC:18e06     Total:15      MisBP:0   MisRate:0.00%    MPKI:0.00
PC:15bee     Total:44777      MisBP:0   MisRate:0.00%    MPKI:0.00
PC:15ca0     Total:43919      MisBP:0   MisRate:0.00%    MPKI:0.00
PC:15c98     Total:43921      MisBP:0   MisRate:0.00%    MPKI:0.00
PC:15c8c     Total:44024      MisBP:0   MisRate:0.00%    MPKI:0.00
PC:15c86     Total:44030      MisBP:0   MisRate:0.00%    MPKI:0.00
PC:15c7e     Total:44301      MisBP:0   MisRate:0.00%    MPKI:0.00
PC:15c7a     Total:44303      MisBP:0   MisRate:0.00%    MPKI:0.00
PC:15c5a     Total:44595      MisBP:0   MisRate:0.00%    MPKI:0.00
PC:15c4e     Total:44699      MisBP:0   MisRate:0.00%    MPKI:0.00
PC:15c2e     Total:44884      MisBP:0   MisRate:0.00%    MPKI:0.00
PC:15bfa     Total:44806      MisBP:0   MisRate:0.00%    MPKI:0.00
PC:15bf4     Total:44896      MisBP:0   MisRate:0.00%    MPKI:0.00
PC:15cb0     Total:43861      MisBP:0   MisRate:0.00%    MPKI:0.00
PC:13406     Total:262      MisBP:0   MisRate:0.00%    MPKI:0.00
PC:15bc4     Total:44686      MisBP:0   MisRate:0.00%    MPKI:0.00
PC:13402     Total:262      MisBP:0   MisRate:0.00%    MPKI:0.00
PC:15bc0     Total:44686      MisBP:0   MisRate:0.00%    MPKI:0.00
PC:15b98     Total:44775      MisBP:0   MisRate:0.00%    MPKI:0.00
PC:15b92     Total:44657      MisBP:0   MisRate:0.00%    MPKI:0.00
PC:15b8a     Total:44515      MisBP:0   MisRate:0.00%    MPKI:0.00
PC:133b2     Total:1      MisBP:0   MisRate:0.00%    MPKI:0.00
PC:15b70     Total:44493      MisBP:0   MisRate:0.00%    MPKI:0.00
PC:15b66     Total:44577      MisBP:0   MisRate:0.00%    MPKI:0.00
PC:18b44     Total:35      MisBP:0   MisRate:0.00%    MPKI:0.00
PC:18bfa     Total:72      MisBP:0   MisRate:0.00%    MPKI:0.00
PC:18be6     Total:67111      MisBP:0   MisRate:0.00%    MPKI:0.00
PC:18bd6     Total:58959      MisBP:0   MisRate:0.00%    MPKI:0.00
PC:1dc18     Total:19      MisBP:0   MisRate:0.00%    MPKI:0.00
PC:18bc0     Total:21042      MisBP:0   MisRate:0.00%    MPKI:0.00
PC:18bb4     Total:21490      MisBP:0   MisRate:0.00%    MPKI:0.00
PC:18b9c     Total:55      MisBP:0   MisRate:0.00%    MPKI:0.00
PC:18b96     Total:55      MisBP:0   MisRate:0.00%    MPKI:0.00
PC:18b7a     Total:43      MisBP:0   MisRate:0.00%    MPKI:0.00
PC:18b72     Total:43      MisBP:0   MisRate:0.00%    MPKI:0.00
PC:18b6e     Total:43      MisBP:0   MisRate:0.00%    MPKI:0.00
PC:133a4     Total:1      MisBP:0   MisRate:0.00%    MPKI:0.00
PC:15d4a     Total:43956      MisBP:0   MisRate:0.00%    MPKI:0.00
PC:15d2e     Total:43903      MisBP:0   MisRate:0.00%    MPKI:0.00
PC:15cfe     Total:44012      MisBP:0   MisRate:0.00%    MPKI:0.00
PC:15cfa     Total:43965      MisBP:0   MisRate:0.00%    MPKI:0.00
PC:15cde     Total:43991      MisBP:0   MisRate:0.00%    MPKI:0.00
PC:15cd4     Total:43863      MisBP:0   MisRate:0.00%    MPKI:0.00
PC:15cce     Total:43843      MisBP:0   MisRate:0.00%    MPKI:0.00
PC:15cca     Total:43844      MisBP:0   MisRate:0.00%    MPKI:0.00
PC:15cc6     Total:43842      MisBP:0   MisRate:0.00%    MPKI:0.00
PC:15cc2     Total:43842      MisBP:0   MisRate:0.00%    MPKI:0.00
PC:15a96     Total:43987      MisBP:0   MisRate:0.00%    MPKI:0.00
PC:15ac8     Total:43924      MisBP:0   MisRate:0.00%    MPKI:0.00
PC:15ac4     Total:43865      MisBP:0   MisRate:0.00%    MPKI:0.00
PC:15ac0     Total:43875      MisBP:0   MisRate:0.00%    MPKI:0.00
PC:15abc     Total:43944      MisBP:0   MisRate:0.00%    MPKI:0.00
PC:15ab8     Total:43944      MisBP:0   MisRate:0.00%    MPKI:0.00
PC:15ab4     Total:44000      MisBP:0   MisRate:0.00%    MPKI:0.00
PC:15aae     Total:44001      MisBP:0   MisRate:0.00%    MPKI:0.00
PC:15aaa     Total:44005      MisBP:0   MisRate:0.00%    MPKI:0.00
PC:191e8     Total:5      MisBP:0   MisRate:0.00%    MPKI:0.00
PC:141a6     Total:212      MisBP:0   MisRate:0.00%    MPKI:0.00
PC:15aa6     Total:43950      MisBP:0   MisRate:0.00%    MPKI:0.00
PC:15ad6     Total:43882      MisBP:0   MisRate:0.00%    MPKI:0.00
PC:191d4     Total:6      MisBP:0   MisRate:0.00%    MPKI:0.00
PC:14192     Total:2      MisBP:0   MisRate:0.00%    MPKI:0.00
PC:15a8e     Total:44105      MisBP:0   MisRate:0.00%    MPKI:0.00
PC:191cc     Total:6      MisBP:0   MisRate:0.00%    MPKI:0.00
PC:1418a     Total:2      MisBP:0   MisRate:0.00%    MPKI:0.00
PC:15a70     Total:44142      MisBP:0   MisRate:0.00%    MPKI:0.00
PC:191ae     Total:6      MisBP:0   MisRate:0.00%    MPKI:0.00
PC:15a6c     Total:44142      MisBP:0   MisRate:0.00%    MPKI:0.00
PC:15a66     Total:44069      MisBP:0   MisRate:0.00%    MPKI:0.00
PC:191a4     Total:6      MisBP:0   MisRate:0.00%    MPKI:0.00
PC:1334e     Total:16      MisBP:0   MisRate:0.00%    MPKI:0.00
PC:15b62     Total:44577      MisBP:0   MisRate:0.00%    MPKI:0.00
PC:133a0     Total:1      MisBP:0   MisRate:0.00%    MPKI:0.00
PC:15b5e     Total:44579      MisBP:0   MisRate:0.00%    MPKI:0.00
PC:13394     Total:11      MisBP:0   MisRate:0.00%    MPKI:0.00
PC:15b52     Total:44295      MisBP:0   MisRate:0.00%    MPKI:0.00
PC:13376     Total:2      MisBP:0   MisRate:0.00%    MPKI:0.00
PC:15b34     Total:44516      MisBP:0   MisRate:0.00%    MPKI:0.00
PC:13362     Total:3      MisBP:0   MisRate:0.00%    MPKI:0.00
PC:15b20     Total:44540      MisBP:0   MisRate:0.00%    MPKI:0.00
PC:15b16     Total:44365      MisBP:0   MisRate:0.00%    MPKI:0.00
PC:15b12     Total:44321      MisBP:0   MisRate:0.00%    MPKI:0.00
PC:18e1c     Total:657      MisBP:0   MisRate:0.00%    MPKI:0.00
PC:15b0c     Total:44334      MisBP:0   MisRate:0.00%    MPKI:0.00
PC:13340     Total:209      MisBP:0   MisRate:0.00%    MPKI:0.00
PC:15afe     Total:44270      MisBP:0   MisRate:0.00%    MPKI:0.00
PC:13336     Total:199      MisBP:0   MisRate:0.00%    MPKI:0.00
PC:15af4     Total:44196      MisBP:0   MisRate:0.00%    MPKI:0.00
PC:13330     Total:200      MisBP:0   MisRate:0.00%    MPKI:0.00
PC:15aee     Total:44118      MisBP:0   MisRate:0.00%    MPKI:0.00
PC:15ae4     Total:44033      MisBP:0   MisRate:0.00%    MPKI:0.00
PC:15ade     Total:43955      MisBP:0   MisRate:0.00%    MPKI:0.00
PC:15ada     Total:43882      MisBP:0   MisRate:0.00%    MPKI:0.00
PC:18d5a     Total:9548      MisBP:0   MisRate:0.00%    MPKI:0.00
PC:18d6c     Total:4319      MisBP:0   MisRate:0.00%    MPKI:0.00
PC:18d6a     Total:4320      MisBP:0   MisRate:0.00%    MPKI:0.00
PC:165aa     Total:1      MisBP:0   MisRate:0.00%    MPKI:0.00
PC:39778     Total:4      MisBP:0   MisRate:0.00%    MPKI:0.00
PC:18d66     Total:9416      MisBP:0   MisRate:0.00%    MPKI:0.00
PC:165a4     Total:1      MisBP:0   MisRate:0.00%    MPKI:0.00
PC:39772     Total:4      MisBP:0   MisRate:0.00%    MPKI:0.00
PC:18d62     Total:9424      MisBP:0   MisRate:0.00%    MPKI:0.00
PC:18d60     Total:9439      MisBP:0   MisRate:0.00%    MPKI:0.00
PC:1659e     Total:1      MisBP:0   MisRate:0.00%    MPKI:0.00
PC:18d5c     Total:18995      MisBP:0   MisRate:0.00%    MPKI:0.00
PC:3977c     Total:4      MisBP:0   MisRate:0.00%    MPKI:0.00
PC:18d58     Total:9572      MisBP:0   MisRate:0.00%    MPKI:0.00
PC:18d54     Total:19241      MisBP:0   MisRate:0.00%    MPKI:0.00
PC:18d50     Total:9669      MisBP:0   MisRate:0.00%    MPKI:0.00
PC:18d4e     Total:9670      MisBP:0   MisRate:0.00%    MPKI:0.00
PC:18d4a     Total:9670      MisBP:0   MisRate:0.00%    MPKI:0.00
PC:18d48     Total:9672      MisBP:0   MisRate:0.00%    MPKI:0.00
PC:18d46     Total:9669      MisBP:0   MisRate:0.00%    MPKI:0.00
PC:18d44     Total:9672      MisBP:0   MisRate:0.00%    MPKI:0.00
PC:18d40     Total:9673      MisBP:0   MisRate:0.00%    MPKI:0.00
PC:18d3e     Total:9792      MisBP:0   MisRate:0.00%    MPKI:0.00
PC:18d78     Total:5169      MisBP:0   MisRate:0.00%    MPKI:0.00
PC:39794     Total:2      MisBP:0   MisRate:0.00%    MPKI:0.00
PC:165c4     Total:1      MisBP:0   MisRate:0.00%    MPKI:0.00
PC:18d82     Total:5022      MisBP:0   MisRate:0.00%    MPKI:0.00
PC:165c0     Total:1      MisBP:0   MisRate:0.00%    MPKI:0.00
PC:3978e     Total:2      MisBP:0   MisRate:0.00%    MPKI:0.00
PC:18d7e     Total:5022      MisBP:0   MisRate:0.00%    MPKI:0.00
PC:165bc     Total:15      MisBP:0   MisRate:0.00%    MPKI:0.00
PC:3978a     Total:2      MisBP:0   MisRate:0.00%    MPKI:0.00
PC:18d7a     Total:5169      MisBP:0   MisRate:0.00%    MPKI:0.00
PC:165ba     Total:15      MisBP:0   MisRate:0.00%    MPKI:0.00
PC:39788     Total:2      MisBP:0   MisRate:0.00%    MPKI:0.00
PC:18d3c     Total:9792      MisBP:0   MisRate:0.00%    MPKI:0.00
PC:165b6     Total:30      MisBP:0   MisRate:0.00%    MPKI:0.00
PC:39784     Total:2      MisBP:0   MisRate:0.00%    MPKI:0.00
PC:18d74     Total:5171      MisBP:0   MisRate:0.00%    MPKI:0.00
PC:165b4     Total:2      MisBP:0   MisRate:0.00%    MPKI:0.00
PC:18d72     Total:5171      MisBP:0   MisRate:0.00%    MPKI:0.00
PC:165b2     Total:2      MisBP:0   MisRate:0.00%    MPKI:0.00
PC:39780     Total:2      MisBP:0   MisRate:0.00%    MPKI:0.00
PC:18d70     Total:5182      MisBP:0   MisRate:0.00%    MPKI:0.00
PC:18d6e     Total:879      MisBP:0   MisRate:0.00%    MPKI:0.00
PC:165ae     Total:1      MisBP:0   MisRate:0.00%    MPKI:0.00
PC:18e30     Total:108      MisBP:0   MisRate:0.00%    MPKI:0.00
PC:18c0e     Total:63      MisBP:0   MisRate:0.00%    MPKI:0.00
PC:18c02     Total:63      MisBP:0   MisRate:0.00%    MPKI:0.00
PC:16680     Total:26      MisBP:0   MisRate:0.00%    MPKI:0.00
PC:18e3e     Total:4      MisBP:0   MisRate:0.00%    MPKI:0.00
PC:1667c     Total:6      MisBP:0   MisRate:0.00%    MPKI:0.00
PC:18e3a     Total:4      MisBP:0   MisRate:0.00%    MPKI:0.00
PC:18e36     Total:4      MisBP:0   MisRate:0.00%    MPKI:0.00
PC:16676     Total:6      MisBP:0   MisRate:0.00%    MPKI:0.00
PC:18e34     Total:49      MisBP:0   MisRate:0.00%    MPKI:0.00
PC:18e32     Total:49      MisBP:0   MisRate:0.00%    MPKI:0.00
PC:16672     Total:6      MisBP:0   MisRate:0.00%    MPKI:0.00
PC:18c16     Total:63      MisBP:0   MisRate:0.00%    MPKI:0.00
PC:16670     Total:6      MisBP:0   MisRate:0.00%    MPKI:0.00
PC:18e2e     Total:108      MisBP:0   MisRate:0.00%    MPKI:0.00
PC:18e2c     Total:36      MisBP:0   MisRate:0.00%    MPKI:0.00
PC:16668     Total:16      MisBP:0   MisRate:0.00%    MPKI:0.00
PC:18e26     Total:656      MisBP:0   MisRate:0.00%    MPKI:0.00
PC:16666     Total:16      MisBP:0   MisRate:0.00%    MPKI:0.00
PC:18e24     Total:657      MisBP:0   MisRate:0.00%    MPKI:0.00
PC:18e20     Total:657      MisBP:0   MisRate:0.00%    MPKI:0.00
PC:16660     Total:16      MisBP:0   MisRate:0.00%    MPKI:0.00
PC:18e1e     Total:657      MisBP:0   MisRate:0.00%    MPKI:0.00
PC:18d00     Total:9988      MisBP:0   MisRate:0.00%    MPKI:0.00
PC:18d3a     Total:9799      MisBP:0   MisRate:0.00%    MPKI:0.00
PC:18d38     Total:9804      MisBP:0   MisRate:0.00%    MPKI:0.00
PC:18d34     Total:9813      MisBP:0   MisRate:0.00%    MPKI:0.00
PC:18d32     Total:9823      MisBP:0   MisRate:0.00%    MPKI:0.00
PC:18d2c     Total:9849      MisBP:0   MisRate:0.00%    MPKI:0.00
PC:18d24     Total:10006      MisBP:0   MisRate:0.00%    MPKI:0.00
PC:18d1e     Total:10037      MisBP:0   MisRate:0.00%    MPKI:0.00
PC:18d1a     Total:20092      MisBP:0   MisRate:0.00%    MPKI:0.00
PC:18d0c     Total:10099      MisBP:0   MisRate:0.00%    MPKI:0.00
PC:18d08     Total:10096      MisBP:0   MisRate:0.00%    MPKI:0.00
PC:18d04     Total:10096      MisBP:0   MisRate:0.00%    MPKI:0.00
PC:15b02     Total:44114      MisBP:0   MisRate:0.00%    MPKI:0.00
PC:18cf8     Total:39677      MisBP:0   MisRate:0.00%    MPKI:0.00
PC:18cf2     Total:40152      MisBP:0   MisRate:0.00%    MPKI:0.00
PC:18cea     Total:40560      MisBP:0   MisRate:0.00%    MPKI:0.00
PC:18ce6     Total:40644      MisBP:0   MisRate:0.00%    MPKI:0.00
PC:18cbc     Total:231      MisBP:0   MisRate:0.00%    MPKI:0.00
PC:1dc20     Total:19      MisBP:0   MisRate:0.00%    MPKI:0.00
PC:18c9e     Total:9033      MisBP:0   MisRate:0.00%    MPKI:0.00
PC:18c8c     Total:9119      MisBP:0   MisRate:0.00%    MPKI:0.00
PC:18c68     Total:48272      MisBP:0   MisRate:0.00%    MPKI:0.00
PC:18c26     Total:10979      MisBP:0   MisRate:0.00%    MPKI:0.00
PC:10190     Total:18      MisBP:0   MisRate:0.00%    MPKI:0.00
PC:361e0     Total:226      MisBP:0   MisRate:0.00%    MPKI:0.00
PC:13012     Total:1      MisBP:0   MisRate:0.00%    MPKI:0.00
PC:15e48     Total:44445      MisBP:0   MisRate:0.00%    MPKI:0.00
PC:15cf8     Total:43902      MisBP:0   MisRate:0.00%    MPKI:0.00
PC:1544e     Total:43827      MisBP:0   MisRate:0.00%    MPKI:0.00
PC:14178     Total:71      MisBP:0   MisRate:0.00%    MPKI:0.00
PC:190f4     Total:6      MisBP:0   MisRate:0.00%    MPKI:0.00
PC:140b2     Total:159      MisBP:0   MisRate:0.00%    MPKI:0.00
PC:159b6     Total:43445      MisBP:0   MisRate:0.00%    MPKI:0.00
PC:15a7c     Total:44246      MisBP:0   MisRate:0.00%    MPKI:0.00
PC:151d2     Total:3      MisBP:0   MisRate:0.00%    MPKI:0.00
PC:15d3a     Total:43897      MisBP:0   MisRate:0.00%    MPKI:0.00
PC:19138     Total:6      MisBP:0   MisRate:0.00%    MPKI:0.00
PC:159fa     Total:43683      MisBP:0   MisRate:0.00%    MPKI:0.00
PC:15a36     Total:43934      MisBP:0   MisRate:0.00%    MPKI:0.00
PC:19174     Total:6      MisBP:0   MisRate:0.00%    MPKI:0.00
PC:10efa     Total:170      MisBP:0   MisRate:0.00%    MPKI:0.00
PC:15e76     Total:44325      MisBP:0   MisRate:0.00%    MPKI:0.00
PC:1518c     Total:45      MisBP:0   MisRate:0.00%    MPKI:0.00
PC:29294     Total:11      MisBP:0   MisRate:0.00%    MPKI:0.00
PC:15cf6     Total:43902      MisBP:0   MisRate:0.00%    MPKI:0.00
PC:16934     Total:6      MisBP:0   MisRate:0.00%    MPKI:0.00
PC:15452     Total:43827      MisBP:0   MisRate:0.00%    MPKI:0.00
PC:15a04     Total:43718      MisBP:0   MisRate:0.00%    MPKI:0.00
PC:10154     Total:231      MisBP:0   MisRate:0.00%    MPKI:0.00
PC:2929e     Total:11      MisBP:0   MisRate:0.00%    MPKI:0.00
PC:16400     Total:44679      MisBP:0   MisRate:0.00%    MPKI:0.00
PC:15d00     Total:43908      MisBP:0   MisRate:0.00%    MPKI:0.00
PC:29246     Total:36      MisBP:0   MisRate:0.00%    MPKI:0.00
PC:1513e     Total:52      MisBP:0   MisRate:0.00%    MPKI:0.00
PC:15456     Total:43827      MisBP:0   MisRate:0.00%    MPKI:0.00
PC:15cfc     Total:43961      MisBP:0   MisRate:0.00%    MPKI:0.00
PC:29242     Total:46      MisBP:0   MisRate:0.00%    MPKI:0.00
PC:1513a     Total:52      MisBP:0   MisRate:0.00%    MPKI:0.00
PC:190f2     Total:6      MisBP:0   MisRate:0.00%    MPKI:0.00
PC:18b88     Total:50      MisBP:0   MisRate:0.00%    MPKI:0.00
PC:163ca     Total:44042      MisBP:0   MisRate:0.00%    MPKI:0.00
PC:10ece     Total:7      MisBP:0   MisRate:0.00%    MPKI:0.00
PC:15f10     Total:43968      MisBP:0   MisRate:0.00%    MPKI:0.00
PC:15e4a     Total:44426      MisBP:0   MisRate:0.00%    MPKI:0.00
PC:15a3a     Total:43934      MisBP:0   MisRate:0.00%    MPKI:0.00
PC:15190     Total:45      MisBP:0   MisRate:0.00%    MPKI:0.00
PC:29298     Total:11      MisBP:0   MisRate:0.00%    MPKI:0.00
PC:163fa     Total:44863      MisBP:0   MisRate:0.00%    MPKI:0.00
PC:15a08     Total:43784      MisBP:0   MisRate:0.00%    MPKI:0.00
PC:163ea     Total:44603      MisBP:0   MisRate:0.00%    MPKI:0.00
PC:19132     Total:6      MisBP:0   MisRate:0.00%    MPKI:0.00
PC:297e4     Total:77      MisBP:0   MisRate:0.00%    MPKI:0.00
PC:156dc     Total:44558      MisBP:0   MisRate:0.00%    MPKI:0.00
PC:159f4     Total:43619      MisBP:0   MisRate:0.00%    MPKI:0.00
PC:15186     Total:45      MisBP:0   MisRate:0.00%    MPKI:0.00
PC:163f0     Total:44684      MisBP:0   MisRate:0.00%    MPKI:0.00
PC:15cf0     Total:43907      MisBP:0   MisRate:0.00%    MPKI:0.00
PC:15446     Total:20      MisBP:0   MisRate:0.00%    MPKI:0.00
PC:1692e     Total:6      MisBP:0   MisRate:0.00%    MPKI:0.00
PC:15180     Total:45      MisBP:0   MisRate:0.00%    MPKI:0.00
PC:29288     Total:11      MisBP:0   MisRate:0.00%    MPKI:0.00
PC:141b6     Total:3      MisBP:0   MisRate:0.00%    MPKI:0.00
PC:1517c     Total:51      MisBP:0   MisRate:0.00%    MPKI:0.00
PC:29284     Total:11      MisBP:0   MisRate:0.00%    MPKI:0.00
PC:18ba4     Total:59      MisBP:0   MisRate:0.00%    MPKI:0.00
PC:163e6     Total:44262      MisBP:0   MisRate:0.00%    MPKI:0.00
PC:15ce6     Total:43840      MisBP:0   MisRate:0.00%    MPKI:0.00
PC:16924     Total:6      MisBP:0   MisRate:0.00%    MPKI:0.00
PC:190e2     Total:6      MisBP:0   MisRate:0.00%    MPKI:0.00
PC:29794     Total:59      MisBP:0   MisRate:0.00%    MPKI:0.00
PC:159a4     Total:43255      MisBP:0   MisRate:0.00%    MPKI:0.00
PC:151c0     Total:3      MisBP:0   MisRate:0.00%    MPKI:0.00
PC:15cf2     Total:43902      MisBP:0   MisRate:0.00%    MPKI:0.00
PC:140b0     Total:159      MisBP:0   MisRate:0.00%    MPKI:0.00
PC:159b4     Total:43384      MisBP:0   MisRate:0.00%    MPKI:0.00
PC:15a32     Total:43934      MisBP:0   MisRate:0.00%    MPKI:0.00
PC:15d64     Total:43946      MisBP:0   MisRate:0.00%    MPKI:0.00
PC:3620a     Total:17      MisBP:0   MisRate:0.00%    MPKI:0.00
PC:10ef6     Total:170      MisBP:0   MisRate:0.00%    MPKI:0.00
PC:15f38     Total:44074      MisBP:0   MisRate:0.00%    MPKI:0.00
PC:15e72     Total:44340      MisBP:0   MisRate:0.00%    MPKI:0.00
PC:15188     Total:45      MisBP:0   MisRate:0.00%    MPKI:0.00
PC:29290     Total:11      MisBP:0   MisRate:0.00%    MPKI:0.00
PC:163f2     Total:44682      MisBP:0   MisRate:0.00%    MPKI:0.00
PC:19142     Total:6      MisBP:0   MisRate:0.00%    MPKI:0.00
PC:16930     Total:6      MisBP:0   MisRate:0.00%    MPKI:0.00
PC:190ee     Total:6      MisBP:0   MisRate:0.00%    MPKI:0.00
PC:140ac     Total:159      MisBP:0   MisRate:0.00%    MPKI:0.00
PC:15698     Total:44359      MisBP:0   MisRate:0.00%    MPKI:0.00
PC:159b0     Total:43383      MisBP:0   MisRate:0.00%    MPKI:0.00
PC:151cc     Total:3      MisBP:0   MisRate:0.00%    MPKI:0.00
PC:292d4     Total:6      MisBP:0   MisRate:0.00%    MPKI:0.00
PC:18bf4     Total:10493      MisBP:0   MisRate:0.00%    MPKI:0.00
PC:16436     Total:44741      MisBP:0   MisRate:0.00%    MPKI:0.00
PC:15d36     Total:43903      MisBP:0   MisRate:0.00%    MPKI:0.00
PC:15d50     Total:43956      MisBP:0   MisRate:0.00%    MPKI:0.00
PC:29252     Total:35      MisBP:0   MisRate:0.00%    MPKI:0.00
PC:1514a     Total:45      MisBP:0   MisRate:0.00%    MPKI:0.00
PC:15462     Total:494192      MisBP:0   MisRate:0.00%    MPKI:0.00
PC:1694a     Total:989      MisBP:0   MisRate:0.00%    MPKI:0.00
PC:19108     Total:6      MisBP:0   MisRate:0.00%    MPKI:0.00
PC:140c6     Total:210      MisBP:0   MisRate:0.00%    MPKI:0.00
PC:159ca     Total:43495      MisBP:0   MisRate:0.00%    MPKI:0.00
PC:15a90     Total:44105      MisBP:0   MisRate:0.00%    MPKI:0.00
PC:191ce     Total:6      MisBP:0   MisRate:0.00%    MPKI:0.00
PC:151e6     Total:2205      MisBP:0   MisRate:0.00%    MPKI:0.00
PC:101a4     Total:30      MisBP:0   MisRate:0.00%    MPKI:0.00
PC:292aa     Total:11      MisBP:0   MisRate:0.00%    MPKI:0.00
PC:15a8c     Total:44111      MisBP:0   MisRate:0.00%    MPKI:0.00
PC:151e2     Total:4410      MisBP:0   MisRate:0.00%    MPKI:0.00
PC:101a0     Total:15      MisBP:0   MisRate:0.00%    MPKI:0.00
PC:18c0a     Total:63      MisBP:0   MisRate:0.00%    MPKI:0.00
PC:1644c     Total:44511      MisBP:0   MisRate:0.00%    MPKI:0.00
PC:15d4c     Total:43956      MisBP:0   MisRate:0.00%    MPKI:0.00
PC:19148     Total:6      MisBP:0   MisRate:0.00%    MPKI:0.00
PC:15a0a     Total:43784      MisBP:0   MisRate:0.00%    MPKI:0.00
PC:18b94     Total:55      MisBP:0   MisRate:0.00%    MPKI:0.00
PC:163d6     Total:44216      MisBP:0   MisRate:0.00%    MPKI:0.00
PC:1914e     Total:6      MisBP:0   MisRate:0.00%    MPKI:0.00
PC:16454     Total:44377      MisBP:0   MisRate:0.00%    MPKI:0.00
PC:101f8     Total:4      MisBP:0   MisRate:0.00%    MPKI:0.00
PC:15174     Total:51      MisBP:0   MisRate:0.00%    MPKI:0.00
PC:2927c     Total:12      MisBP:0   MisRate:0.00%    MPKI:0.00
PC:10ee2     Total:181      MisBP:0   MisRate:0.00%    MPKI:0.00
PC:15e5e     Total:44437      MisBP:0   MisRate:0.00%    MPKI:0.00
PC:15a92     Total:43987      MisBP:0   MisRate:0.00%    MPKI:0.00
PC:18c10     Total:63      MisBP:0   MisRate:0.00%    MPKI:0.00
PC:16452     Total:44506      MisBP:0   MisRate:0.00%    MPKI:0.00
PC:141d2     Total:1      MisBP:0   MisRate:0.00%    MPKI:0.00
PC:16990     Total:1      MisBP:0   MisRate:0.00%    MPKI:0.00
PC:15e56     Total:44455      MisBP:0   MisRate:0.00%    MPKI:0.00
PC:29800     Total:2962      MisBP:0   MisRate:0.00%    MPKI:0.00
PC:15a10     Total:43907      MisBP:0   MisRate:0.00%    MPKI:0.00
PC:361f4     Total:148      MisBP:0   MisRate:0.00%    MPKI:0.00
PC:13026     Total:1      MisBP:0   MisRate:0.00%    MPKI:0.00
PC:10ee0     Total:181      MisBP:0   MisRate:0.00%    MPKI:0.00
PC:15f22     Total:43909      MisBP:0   MisRate:0.00%    MPKI:0.00
PC:15e5c     Total:44440      MisBP:0   MisRate:0.00%    MPKI:0.00
PC:15a4c     Total:43910      MisBP:0   MisRate:0.00%    MPKI:0.00
PC:151a2     Total:42      MisBP:0   MisRate:0.00%    MPKI:0.00
PC:10160     Total:21      MisBP:0   MisRate:0.00%    MPKI:0.00
PC:16940     Total:1978      MisBP:0   MisRate:0.00%    MPKI:0.00
PC:15a42     Total:43910      MisBP:0   MisRate:0.00%    MPKI:0.00
PC:15e82     Total:43985      MisBP:0   MisRate:0.00%    MPKI:0.00
PC:15198     Total:42      MisBP:0   MisRate:0.00%    MPKI:0.00
PC:292a0     Total:11      MisBP:0   MisRate:0.00%    MPKI:0.00
PC:15d02     Total:43919      MisBP:0   MisRate:0.00%    MPKI:0.00
PC:29248     Total:36      MisBP:0   MisRate:0.00%    MPKI:0.00
PC:15140     Total:45      MisBP:0   MisRate:0.00%    MPKI:0.00
PC:15458     Total:43827      MisBP:0   MisRate:0.00%    MPKI:0.00
PC:29560     Total:2229      MisBP:0   MisRate:0.00%    MPKI:0.00
PC:14182     Total:2      MisBP:0   MisRate:0.00%    MPKI:0.00
PC:191c4     Total:6      MisBP:0   MisRate:0.00%    MPKI:0.00
PC:15e52     Total:44385      MisBP:0   MisRate:0.00%    MPKI:0.00
PC:190fe     Total:6      MisBP:0   MisRate:0.00%    MPKI:0.00
PC:140bc     Total:159      MisBP:0   MisRate:0.00%    MPKI:0.00
PC:159c0     Total:43430      MisBP:0   MisRate:0.00%    MPKI:0.00
PC:15a86     Total:44111      MisBP:0   MisRate:0.00%    MPKI:0.00
PC:151dc     Total:18      MisBP:0   MisRate:0.00%    MPKI:0.00
PC:292e4     Total:70      MisBP:0   MisRate:0.00%    MPKI:0.00
PC:18c04     Total:63      MisBP:0   MisRate:0.00%    MPKI:0.00
PC:16446     Total:44558      MisBP:0   MisRate:0.00%    MPKI:0.00
PC:15d46     Total:43956      MisBP:0   MisRate:0.00%    MPKI:0.00
PC:16984     Total:8      MisBP:0   MisRate:0.00%    MPKI:0.00
PC:15a88     Total:44111      MisBP:0   MisRate:0.00%    MPKI:0.00
PC:15d06     Total:43982      MisBP:0   MisRate:0.00%    MPKI:0.00
PC:16944     Total:989      MisBP:0   MisRate:0.00%    MPKI:0.00
PC:19102     Total:6      MisBP:0   MisRate:0.00%    MPKI:0.00
PC:140c0     Total:2      MisBP:0   MisRate:0.00%    MPKI:0.00
PC:297b4     Total:59      MisBP:0   MisRate:0.00%    MPKI:0.00
PC:159c4     Total:43430      MisBP:0   MisRate:0.00%    MPKI:0.00
PC:15a8a     Total:44111      MisBP:0   MisRate:0.00%    MPKI:0.00
PC:191c8     Total:6      MisBP:0   MisRate:0.00%    MPKI:0.00
PC:151e0     Total:18      MisBP:0   MisRate:0.00%    MPKI:0.00
PC:18c08     Total:63      MisBP:0   MisRate:0.00%    MPKI:0.00
PC:1644a     Total:44532      MisBP:0   MisRate:0.00%    MPKI:0.00
PC:1642a     Total:44695      MisBP:0   MisRate:0.00%    MPKI:0.00
PC:18c06     Total:63      MisBP:0   MisRate:0.00%    MPKI:0.00
PC:16448     Total:44545      MisBP:0   MisRate:0.00%    MPKI:0.00
PC:361ee     Total:149      MisBP:0   MisRate:0.00%    MPKI:0.00
PC:13020     Total:1      MisBP:0   MisRate:0.00%    MPKI:0.00
PC:15d48     Total:43956      MisBP:0   MisRate:0.00%    MPKI:0.00
PC:141c8     Total:1      MisBP:0   MisRate:0.00%    MPKI:0.00
PC:19144     Total:6      MisBP:0   MisRate:0.00%    MPKI:0.00
PC:15d44     Total:43956      MisBP:0   MisRate:0.00%    MPKI:0.00
PC:361ea     Total:149      MisBP:0   MisRate:0.00%    MPKI:0.00
PC:1301c     Total:1      MisBP:0   MisRate:0.00%    MPKI:0.00
PC:1565c     Total:44124      MisBP:0   MisRate:0.00%    MPKI:0.00
PC:15106     Total:515040      MisBP:0   MisRate:0.00%    MPKI:0.00
PC:190bc     Total:1      MisBP:0   MisRate:0.00%    MPKI:0.00
PC:153c6     Total:39      MisBP:0   MisRate:0.00%    MPKI:0.00
PC:168ae     Total:1      MisBP:0   MisRate:0.00%    MPKI:0.00
PC:1906c     Total:8      MisBP:0   MisRate:0.00%    MPKI:0.00
PC:1592e     Total:44124      MisBP:0   MisRate:0.00%    MPKI:0.00
PC:1317c     Total:677      MisBP:0   MisRate:0.00%    MPKI:0.00
PC:1593a     Total:43292      MisBP:0   MisRate:0.00%    MPKI:0.00
PC:15090     Total:217924      MisBP:0   MisRate:0.00%    MPKI:0.00
PC:162fa     Total:44205      MisBP:0   MisRate:0.00%    MPKI:0.00
PC:29764     Total:159      MisBP:0   MisRate:0.00%    MPKI:0.00
PC:158f6     Total:44069      MisBP:0   MisRate:0.00%    MPKI:0.00
PC:15974     Total:43269      MisBP:0   MisRate:0.00%    MPKI:0.00
PC:1290c     Total:1      MisBP:0   MisRate:0.00%    MPKI:0.00
PC:150ca     Total:362408      MisBP:0   MisRate:0.00%    MPKI:0.00
PC:16334     Total:43888      MisBP:0   MisRate:0.00%    MPKI:0.00
PC:15104     Total:515165      MisBP:0   MisRate:0.00%    MPKI:0.00
PC:12d80     Total:234943      MisBP:0   MisRate:0.00%    MPKI:0.00
PC:1553e     Total:1      MisBP:0   MisRate:0.00%    MPKI:0.00
PC:162f8     Total:44211      MisBP:0   MisRate:0.00%    MPKI:0.00
PC:12908     Total:1      MisBP:0   MisRate:0.00%    MPKI:0.00
PC:150c6     Total:362411      MisBP:0   MisRate:0.00%    MPKI:0.00
PC:1633e     Total:43888      MisBP:0   MisRate:0.00%    MPKI:0.00
PC:16344     Total:43820      MisBP:0   MisRate:0.00%    MPKI:0.00
PC:15982     Total:43258      MisBP:0   MisRate:0.00%    MPKI:0.00
PC:1291a     Total:2      MisBP:0   MisRate:0.00%    MPKI:0.00
PC:1015c     Total:21      MisBP:0   MisRate:0.00%    MPKI:0.00
PC:1519e     Total:42      MisBP:0   MisRate:0.00%    MPKI:0.00
PC:292a6     Total:11      MisBP:0   MisRate:0.00%    MPKI:0.00
PC:1597e     Total:43258      MisBP:0   MisRate:0.00%    MPKI:0.00
PC:12916     Total:1      MisBP:0   MisRate:0.00%    MPKI:0.00
PC:1519a     Total:42      MisBP:0   MisRate:0.00%    MPKI:0.00
PC:292a2     Total:11      MisBP:0   MisRate:0.00%    MPKI:0.00
PC:150d4     Total:362249      MisBP:0   MisRate:0.00%    MPKI:0.00
PC:159aa     Total:43386      MisBP:0   MisRate:0.00%    MPKI:0.00
PC:1597a     Total:43269      MisBP:0   MisRate:0.00%    MPKI:0.00
PC:150d0     Total:362256      MisBP:0   MisRate:0.00%    MPKI:0.00
PC:12910     Total:1      MisBP:0   MisRate:0.00%    MPKI:0.00
PC:150ce     Total:362260      MisBP:0   MisRate:0.00%    MPKI:0.00
PC:16338     Total:43888      MisBP:0   MisRate:0.00%    MPKI:0.00
PC:15c38     Total:44854      MisBP:0   MisRate:0.00%    MPKI:0.00
PC:140b8     Total:159      MisBP:0   MisRate:0.00%    MPKI:0.00
PC:16876     Total:83      MisBP:0   MisRate:0.00%    MPKI:0.00
PC:19034     Total:12      MisBP:0   MisRate:0.00%    MPKI:0.00
PC:13138     Total:2      MisBP:0   MisRate:0.00%    MPKI:0.00
PC:13162     Total:161      MisBP:0   MisRate:0.00%    MPKI:0.00
PC:15086     Total:2162751      MisBP:0   MisRate:0.00%    MPKI:0.00
PC:1596a     Total:43274      MisBP:0   MisRate:0.00%    MPKI:0.00
PC:150c0     Total:362429      MisBP:0   MisRate:0.00%    MPKI:0.00
PC:1632a     Total:44059      MisBP:0   MisRate:0.00%    MPKI:0.00
PC:1293a     Total:1      MisBP:0   MisRate:0.00%    MPKI:0.00
PC:150f8     Total:528937      MisBP:0   MisRate:0.00%    MPKI:0.00
PC:16362     Total:43999      MisBP:0   MisRate:0.00%    MPKI:0.00
PC:15c62     Total:44508      MisBP:0   MisRate:0.00%    MPKI:0.00
PC:1905e     Total:8      MisBP:0   MisRate:0.00%    MPKI:0.00
PC:29710     Total:162      MisBP:0   MisRate:0.00%    MPKI:0.00
PC:15608     Total:43581      MisBP:0   MisRate:0.00%    MPKI:0.00
PC:162f2     Total:44211      MisBP:0   MisRate:0.00%    MPKI:0.00
PC:15920     Total:44044      MisBP:0   MisRate:0.00%    MPKI:0.00
PC:15966     Total:43274      MisBP:0   MisRate:0.00%    MPKI:0.00
PC:150bc     Total:376022      MisBP:0   MisRate:0.00%    MPKI:0.00
PC:16326     Total:43981      MisBP:0   MisRate:0.00%    MPKI:0.00
PC:12938     Total:1      MisBP:0   MisRate:0.00%    MPKI:0.00
PC:150f6     Total:528960      MisBP:0   MisRate:0.00%    MPKI:0.00
PC:15530     Total:1      MisBP:0   MisRate:0.00%    MPKI:0.00
PC:29638     Total:2226      MisBP:0   MisRate:0.00%    MPKI:0.00
PC:15c60     Total:44593      MisBP:0   MisRate:0.00%    MPKI:0.00
PC:153b6     Total:46      MisBP:0   MisRate:0.00%    MPKI:0.00
PC:12906     Total:1      MisBP:0   MisRate:0.00%    MPKI:0.00
PC:190e8     Total:6      MisBP:0   MisRate:0.00%    MPKI:0.00
PC:140a6     Total:159      MisBP:0   MisRate:0.00%    MPKI:0.00
PC:10184     Total:72      MisBP:0   MisRate:0.00%    MPKI:0.00
PC:292ce     Total:7      MisBP:0   MisRate:0.00%    MPKI:0.00
PC:15100     Total:515194      MisBP:0   MisRate:0.00%    MPKI:0.00
PC:18b28     Total:400      MisBP:0   MisRate:0.00%    MPKI:0.00
PC:1636a     Total:43833      MisBP:0   MisRate:0.00%    MPKI:0.00
PC:1508a     Total:2156771      MisBP:0   MisRate:0.00%    MPKI:0.00
PC:162f4     Total:44211      MisBP:0   MisRate:0.00%    MPKI:0.00
PC:131b0     Total:1      MisBP:0   MisRate:0.00%    MPKI:0.00
PC:1596e     Total:43274      MisBP:0   MisRate:0.00%    MPKI:0.00
PC:150da     Total:227464      MisBP:0   MisRate:0.00%    MPKI:0.00
PC:150c4     Total:362425      MisBP:0   MisRate:0.00%    MPKI:0.00
PC:1632e     Total:43889      MisBP:0   MisRate:0.00%    MPKI:0.00
PC:29798     Total:59      MisBP:0   MisRate:0.00%    MPKI:0.00
PC:15690     Total:44386      MisBP:0   MisRate:0.00%    MPKI:0.00
PC:159a8     Total:43386      MisBP:0   MisRate:0.00%    MPKI:0.00
PC:150fe     Total:527636      MisBP:0   MisRate:0.00%    MPKI:0.00
PC:15c68     Total:44526      MisBP:0   MisRate:0.00%    MPKI:0.00
PC:168a6     Total:5      MisBP:0   MisRate:0.00%    MPKI:0.00
PC:19064     Total:8      MisBP:0   MisRate:0.00%    MPKI:0.00
PC:15088     Total:2160045      MisBP:0   MisRate:0.00%    MPKI:0.00
PC:1911c     Total:6      MisBP:0   MisRate:0.00%    MPKI:0.00
PC:15432     Total:1412      MisBP:0   MisRate:0.00%    MPKI:0.00
PC:190d8     Total:6      MisBP:0   MisRate:0.00%    MPKI:0.00
PC:14096     Total:159      MisBP:0   MisRate:0.00%    MPKI:0.00
PC:1599a     Total:43255      MisBP:0   MisRate:0.00%    MPKI:0.00
PC:151b6     Total:9      MisBP:0   MisRate:0.00%    MPKI:0.00
PC:10174     Total:21      MisBP:0   MisRate:0.00%    MPKI:0.00
PC:292be     Total:8      MisBP:0   MisRate:0.00%    MPKI:0.00
PC:16420     Total:44700      MisBP:0   MisRate:0.00%    MPKI:0.00
PC:29266     Total:18      MisBP:0   MisRate:0.00%    MPKI:0.00
PC:15476     Total:47019      MisBP:0   MisRate:0.00%    MPKI:0.00
PC:1695e     Total:988      MisBP:0   MisRate:0.00%    MPKI:0.00
PC:15cdc     Total:43926      MisBP:0   MisRate:0.00%    MPKI:0.00
PC:159de     Total:43563      MisBP:0   MisRate:0.00%    MPKI:0.00
PC:150fa     Total:527652      MisBP:0   MisRate:0.00%    MPKI:0.00
PC:16364     Total:43999      MisBP:0   MisRate:0.00%    MPKI:0.00
PC:15534     Total:1      MisBP:0   MisRate:0.00%    MPKI:0.00
PC:2963c     Total:2226      MisBP:0   MisRate:0.00%    MPKI:0.00
PC:29788     Total:159      MisBP:0   MisRate:0.00%    MPKI:0.00
PC:15680     Total:44308      MisBP:0   MisRate:0.00%    MPKI:0.00
PC:15998     Total:43255      MisBP:0   MisRate:0.00%    MPKI:0.00
PC:150ee     Total:11539701      MisBP:0   MisRate:0.00%    MPKI:0.00
PC:16358     Total:43956      MisBP:0   MisRate:0.00%    MPKI:0.00
PC:151ba     Total:9      MisBP:0   MisRate:0.00%    MPKI:0.00
PC:15d22     Total:43954      MisBP:0   MisRate:0.00%    MPKI:0.00
PC:361c8     Total:308      MisBP:0   MisRate:0.00%    MPKI:0.00
PC:12ffa     Total:5      MisBP:0   MisRate:0.00%    MPKI:0.00
PC:15e30     Total:44537      MisBP:0   MisRate:0.00%    MPKI:0.00
PC:361f8     Total:143      MisBP:0   MisRate:0.00%    MPKI:0.00
PC:1302a     Total:1      MisBP:0   MisRate:0.00%    MPKI:0.00
PC:15176     Total:51      MisBP:0   MisRate:0.00%    MPKI:0.00
PC:163e0     Total:44216      MisBP:0   MisRate:0.00%    MPKI:0.00
PC:15ce0     Total:43852      MisBP:0   MisRate:0.00%    MPKI:0.00
PC:15436     Total:1444      MisBP:0   MisRate:0.00%    MPKI:0.00
PC:1599e     Total:43255      MisBP:0   MisRate:0.00%    MPKI:0.00
PC:15c58     Total:44595      MisBP:0   MisRate:0.00%    MPKI:0.00
PC:10178     Total:21      MisBP:0   MisRate:0.00%    MPKI:0.00
PC:292c2     Total:7      MisBP:0   MisRate:0.00%    MPKI:0.00
PC:18be2     Total:67125      MisBP:0   MisRate:0.00%    MPKI:0.00
PC:1dc24     Total:19      MisBP:0   MisRate:0.00%    MPKI:0.00
PC:16424     Total:44696      MisBP:0   MisRate:0.00%    MPKI:0.00
PC:297dc     Total:231      MisBP:0   MisRate:0.00%    MPKI:0.00
PC:159ec     Total:43559      MisBP:0   MisRate:0.00%    MPKI:0.00
PC:361c4     Total:310      MisBP:0   MisRate:0.00%    MPKI:0.00
PC:12ff6     Total:5      MisBP:0   MisRate:0.00%    MPKI:0.00
PC:15e2c     Total:44538      MisBP:0   MisRate:0.00%    MPKI:0.00
PC:150de     Total:723348      MisBP:0   MisRate:0.00%    MPKI:0.00
PC:1634c     Total:43884      MisBP:0   MisRate:0.00%    MPKI:0.00
PC:1551c     Total:183022      MisBP:0   MisRate:0.00%    MPKI:0.00
PC:29624     Total:2226      MisBP:0   MisRate:0.00%    MPKI:0.00
PC:1598a     Total:43258      MisBP:0   MisRate:0.00%    MPKI:0.00
PC:190c8     Total:6      MisBP:0   MisRate:0.00%    MPKI:0.00
PC:150e0     Total:723294      MisBP:0   MisRate:0.00%    MPKI:0.00
PC:1634a     Total:43884      MisBP:0   MisRate:0.00%    MPKI:0.00
PC:29778     Total:159      MisBP:0   MisRate:0.00%    MPKI:0.00
PC:15670     Total:44206      MisBP:0   MisRate:0.00%    MPKI:0.00
PC:15988     Total:43258      MisBP:0   MisRate:0.00%    MPKI:0.00
PC:12920     Total:1      MisBP:0   MisRate:0.00%    MPKI:0.00
PC:12924     Total:1      MisBP:0   MisRate:0.00%    MPKI:0.00
PC:16348     Total:43884      MisBP:0   MisRate:0.00%    MPKI:0.00
PC:15518     Total:183022      MisBP:0   MisRate:0.00%    MPKI:0.00
PC:29620     Total:2226      MisBP:0   MisRate:0.00%    MPKI:0.00
PC:1291e     Total:1      MisBP:0   MisRate:0.00%    MPKI:0.00
PC:150dc     Total:723871      MisBP:0   MisRate:0.00%    MPKI:0.00
PC:16346     Total:43884      MisBP:0   MisRate:0.00%    MPKI:0.00
PC:15516     Total:183031      MisBP:0   MisRate:0.00%    MPKI:0.00
PC:29774     Total:159      MisBP:0   MisRate:0.00%    MPKI:0.00
PC:1566c     Total:44208      MisBP:0   MisRate:0.00%    MPKI:0.00
PC:15984     Total:43258      MisBP:0   MisRate:0.00%    MPKI:0.00
PC:150e6     Total:632312      MisBP:0   MisRate:0.00%    MPKI:0.00
PC:153ae     Total:8      MisBP:0   MisRate:0.00%    MPKI:0.00
PC:19054     Total:8      MisBP:0   MisRate:0.00%    MPKI:0.00
PC:13158     Total:1      MisBP:0   MisRate:0.00%    MPKI:0.00
PC:15916     Total:44082      MisBP:0   MisRate:0.00%    MPKI:0.00
PC:1292c     Total:1      MisBP:0   MisRate:0.00%    MPKI:0.00
PC:150ea     Total:23369598      MisBP:0   MisRate:0.00%    MPKI:0.00
PC:16354     Total:43956      MisBP:0   MisRate:0.00%    MPKI:0.00
PC:12d66     Total:44996      MisBP:0   MisRate:0.00%    MPKI:0.00
PC:15524     Total:1      MisBP:0   MisRate:0.00%    MPKI:0.00
PC:2962c     Total:2226      MisBP:0   MisRate:0.00%    MPKI:0.00
PC:12928     Total:1      MisBP:0   MisRate:0.00%    MPKI:0.00
PC:18c12     Total:63      MisBP:0   MisRate:0.00%    MPKI:0.00
PC:16350     Total:43968      MisBP:0   MisRate:0.00%    MPKI:0.00
PC:12d62     Total:44996      MisBP:0   MisRate:0.00%    MPKI:0.00
PC:15520     Total:1      MisBP:0   MisRate:0.00%    MPKI:0.00
PC:29628     Total:2226      MisBP:0   MisRate:0.00%    MPKI:0.00
PC:15c50     Total:44645      MisBP:0   MisRate:0.00%    MPKI:0.00
PC:153a6     Total:133      MisBP:0   MisRate:0.00%    MPKI:0.00
PC:140d0     Total:222      MisBP:0   MisRate:0.00%    MPKI:0.00
PC:19112     Total:6      MisBP:0   MisRate:0.00%    MPKI:0.00
PC:1688e     Total:81      MisBP:0   MisRate:0.00%    MPKI:0.00
PC:1904c     Total:8      MisBP:0   MisRate:0.00%    MPKI:0.00
PC:1913e     Total:6      MisBP:0   MisRate:0.00%    MPKI:0.00
PC:15a84     Total:44111      MisBP:0   MisRate:0.00%    MPKI:0.00
PC:15ac6     Total:43924      MisBP:0   MisRate:0.00%    MPKI:0.00
PC:19204     Total:7      MisBP:0   MisRate:0.00%    MPKI:0.00
PC:1521c     Total:6      MisBP:0   MisRate:0.00%    MPKI:0.00
PC:18c44     Total:296      MisBP:0   MisRate:0.00%    MPKI:0.00
PC:16486     Total:44075      MisBP:0   MisRate:0.00%    MPKI:0.00
PC:19182     Total:6      MisBP:0   MisRate:0.00%    MPKI:0.00
PC:15a44     Total:43910      MisBP:0   MisRate:0.00%    MPKI:0.00
PC:151d8     Total:3      MisBP:0   MisRate:0.00%    MPKI:0.00
PC:16442     Total:44565      MisBP:0   MisRate:0.00%    MPKI:0.00
PC:16980     Total:8      MisBP:0   MisRate:0.00%    MPKI:0.00
PC:169a6     Total:1      MisBP:0   MisRate:0.00%    MPKI:0.00
PC:15a00     Total:43718      MisBP:0   MisRate:0.00%    MPKI:0.00
PC:15a80     Total:44111      MisBP:0   MisRate:0.00%    MPKI:0.00
PC:18bfe     Total:63      MisBP:0   MisRate:0.00%    MPKI:0.00
PC:16440     Total:44570      MisBP:0   MisRate:0.00%    MPKI:0.00
PC:15d40     Total:43897      MisBP:0   MisRate:0.00%    MPKI:0.00
PC:141c0     Total:1      MisBP:0   MisRate:0.00%    MPKI:0.00
PC:1913c     Total:6      MisBP:0   MisRate:0.00%    MPKI:0.00
PC:159fe     Total:43727      MisBP:0   MisRate:0.00%    MPKI:0.00
PC:15ac2     Total:43865      MisBP:0   MisRate:0.00%    MPKI:0.00
PC:15218     Total:6      MisBP:0   MisRate:0.00%    MPKI:0.00
PC:1648e     Total:44121      MisBP:0   MisRate:0.00%    MPKI:0.00
PC:1414c     Total:211      MisBP:0   MisRate:0.00%    MPKI:0.00
PC:15a50     Total:43910      MisBP:0   MisRate:0.00%    MPKI:0.00
PC:15ad0     Total:43954      MisBP:0   MisRate:0.00%    MPKI:0.00
PC:1920e     Total:7      MisBP:0   MisRate:0.00%    MPKI:0.00
PC:141cc     Total:1      MisBP:0   MisRate:0.00%    MPKI:0.00
PC:15226     Total:6      MisBP:0   MisRate:0.00%    MPKI:0.00
PC:101e4     Total:4      MisBP:0   MisRate:0.00%    MPKI:0.00
PC:16490     Total:44223      MisBP:0   MisRate:0.00%    MPKI:0.00
PC:15ace     Total:43924      MisBP:0   MisRate:0.00%    MPKI:0.00
PC:15224     Total:6      MisBP:0   MisRate:0.00%    MPKI:0.00
PC:18c4c     Total:296      MisBP:0   MisRate:0.00%    MPKI:0.00
PC:18c40     Total:296      MisBP:0   MisRate:0.00%    MPKI:0.00
PC:15aca     Total:43924      MisBP:0   MisRate:0.00%    MPKI:0.00
PC:19208     Total:7      MisBP:0   MisRate:0.00%    MPKI:0.00
PC:15220     Total:6      MisBP:0   MisRate:0.00%    MPKI:0.00
PC:18c48     Total:296      MisBP:0   MisRate:0.00%    MPKI:0.00
PC:1648a     Total:44073      MisBP:0   MisRate:0.00%    MPKI:0.00
PC:15aba     Total:43944      MisBP:0   MisRate:0.00%    MPKI:0.00
PC:15210     Total:6      MisBP:0   MisRate:0.00%    MPKI:0.00
PC:18c38     Total:10812      MisBP:0   MisRate:0.00%    MPKI:0.00
PC:1647a     Total:44255      MisBP:0   MisRate:0.00%    MPKI:0.00
PC:15aa8     Total:44005      MisBP:0   MisRate:0.00%    MPKI:0.00
PC:16432     Total:44705      MisBP:0   MisRate:0.00%    MPKI:0.00
PC:292d2     Total:7      MisBP:0   MisRate:0.00%    MPKI:0.00
PC:16434     Total:44691      MisBP:0   MisRate:0.00%    MPKI:0.00
PC:15ab6     Total:43944      MisBP:0   MisRate:0.00%    MPKI:0.00
PC:1520c     Total:6      MisBP:0   MisRate:0.00%    MPKI:0.00
PC:16476     Total:44297      MisBP:0   MisRate:0.00%    MPKI:0.00
PC:169b4     Total:1      MisBP:0   MisRate:0.00%    MPKI:0.00
PC:15a72     Total:44142      MisBP:0   MisRate:0.00%    MPKI:0.00
PC:151c8     Total:3      MisBP:0   MisRate:0.00%    MPKI:0.00
PC:292d0     Total:7      MisBP:0   MisRate:0.00%    MPKI:0.00
PC:18bf0     Total:10507      MisBP:0   MisRate:0.00%    MPKI:0.00
PC:1dc32     Total:8      MisBP:0   MisRate:0.00%    MPKI:0.00
PC:10188     Total:18      MisBP:0   MisRate:0.00%    MPKI:0.00
PC:141b2     Total:3      MisBP:0   MisRate:0.00%    MPKI:0.00
PC:1912e     Total:6      MisBP:0   MisRate:0.00%    MPKI:0.00
PC:297e0     Total:231      MisBP:0   MisRate:0.00%    MPKI:0.00
PC:156d8     Total:44558      MisBP:0   MisRate:0.00%    MPKI:0.00
PC:159f0     Total:43619      MisBP:0   MisRate:0.00%    MPKI:0.00
PC:15ab2     Total:44000      MisBP:0   MisRate:0.00%    MPKI:0.00
PC:15208     Total:6      MisBP:0   MisRate:0.00%    MPKI:0.00
PC:16472     Total:44220      MisBP:0   MisRate:0.00%    MPKI:0.00
PC:169b0     Total:1      MisBP:0   MisRate:0.00%    MPKI:0.00
PC:15a30     Total:43958      MisBP:0   MisRate:0.00%    MPKI:0.00
PC:15214     Total:6      MisBP:0   MisRate:0.00%    MPKI:0.00
PC:16482     Total:44075      MisBP:0   MisRate:0.00%    MPKI:0.00
PC:1917e     Total:6      MisBP:0   MisRate:0.00%    MPKI:0.00
PC:15a40     Total:43910      MisBP:0   MisRate:0.00%    MPKI:0.00
PC:36226     Total:13      MisBP:0   MisRate:0.00%    MPKI:0.00
PC:15e8e     Total:43980      MisBP:0   MisRate:0.00%    MPKI:0.00
PC:15a7e     Total:44246      MisBP:0   MisRate:0.00%    MPKI:0.00
PC:191bc     Total:6      MisBP:0   MisRate:0.00%    MPKI:0.00
PC:151d4     Total:3      MisBP:0   MisRate:0.00%    MPKI:0.00
PC:18bfc     Total:71      MisBP:0   MisRate:0.00%    MPKI:0.00
PC:1643e     Total:44738      MisBP:0   MisRate:0.00%    MPKI:0.00
PC:15abe     Total:43943      MisBP:0   MisRate:0.00%    MPKI:0.00
PC:1918e     Total:6      MisBP:0   MisRate:0.00%    MPKI:0.00
PC:18c3c     Total:10779      MisBP:0   MisRate:0.00%    MPKI:0.00
PC:1647e     Total:44288      MisBP:0   MisRate:0.00%    MPKI:0.00
PC:151d0     Total:3      MisBP:0   MisRate:0.00%    MPKI:0.00
PC:1643a     Total:44703      MisBP:0   MisRate:0.00%    MPKI:0.00
PC:15a78     Total:44142      MisBP:0   MisRate:0.00%    MPKI:0.00
PC:18bf6     Total:10488      MisBP:0   MisRate:0.00%    MPKI:0.00
PC:16438     Total:44724      MisBP:0   MisRate:0.00%    MPKI:0.00
PC:16976     Total:984      MisBP:0   MisRate:0.00%    MPKI:0.00
PC:19134     Total:6      MisBP:0   MisRate:0.00%    MPKI:0.00
PC:151ca     Total:3      MisBP:0   MisRate:0.00%    MPKI:0.00
PC:191b2     Total:6      MisBP:0   MisRate:0.00%    MPKI:0.00
PC:1524e     Total:4      MisBP:0   MisRate:0.00%    MPKI:0.00
PC:1020c     Total:2      MisBP:0   MisRate:0.00%    MPKI:0.00
PC:1dbf2     Total:643      MisBP:0   MisRate:0.00%    MPKI:0.00
[...]
PC:15e02     Total:44228      MisBP:0   MisRate:0.00%    MPKI:0.00
PC:15e00     Total:44228      MisBP:0   MisRate:0.00%    MPKI:0.00
PC:15dfe     Total:44357      MisBP:0   MisRate:0.00%    MPKI:0.00
PC:15dfc     Total:44274      MisBP:0   MisRate:0.00%    MPKI:0.00
PC:15eee     Total:44057      MisBP:0   MisRate:0.00%    MPKI:0.00
PC:15df8     Total:44326      MisBP:0   MisRate:0.00%    MPKI:0.00
PC:15dac     Total:44089      MisBP:0   MisRate:0.00%    MPKI:0.00
PC:15d9c     Total:43946      MisBP:0   MisRate:0.00%    MPKI:0.00
PC:15da0     Total:43946      MisBP:0   MisRate:0.00%    MPKI:0.00
PC:15da4     Total:43946      MisBP:0   MisRate:0.00%    MPKI:0.00
PC:15da6     Total:44001      MisBP:0   MisRate:0.00%    MPKI:0.00
PC:15da8     Total:44001      MisBP:0   MisRate:0.00%    MPKI:0.00
PC:15e58     Total:44455      MisBP:0   MisRate:0.00%    MPKI:0.00
PC:15f1e     Total:43909      MisBP:0   MisRate:0.00%    MPKI:0.00
PC:15dc4     Total:43894      MisBP:0   MisRate:0.00%    MPKI:0.00
PC:15e54     Total:44460      MisBP:0   MisRate:0.00%    MPKI:0.00
PC:15dc2     Total:43894      MisBP:0   MisRate:0.00%    MPKI:0.00
PC:15daa     Total:44128      MisBP:0   MisRate:0.00%    MPKI:0.00
PC:15dc0     Total:43894      MisBP:0   MisRate:0.00%    MPKI:0.00
PC:15dbe     Total:44050      MisBP:0   MisRate:0.00%    MPKI:0.00
PC:15db0     Total:44086      MisBP:0   MisRate:0.00%    MPKI:0.00
PC:10edc     Total:3      MisBP:0   MisRate:0.00%    MPKI:0.00
PC:15dbc     Total:44050      MisBP:0   MisRate:0.00%    MPKI:0.00
PC:15dba     Total:44051      MisBP:0   MisRate:0.00%    MPKI:0.00
PC:15db2     Total:44086      MisBP:0   MisRate:0.00%    MPKI:0.00
PC:15db4     Total:44088      MisBP:0   MisRate:0.00%    MPKI:0.00
PC:15db6     Total:44088      MisBP:0   MisRate:0.00%    MPKI:0.00
PC:15e66     Total:44365      MisBP:0   MisRate:0.00%    MPKI:0.00
PC:15d94     Total:44005      MisBP:0   MisRate:0.00%    MPKI:0.00
PC:15f30     Total:43946      MisBP:0   MisRate:0.00%    MPKI:0.00
PC:15e6a     Total:44361      MisBP:0   MisRate:0.00%    MPKI:0.00
PC:15d96     Total:44068      MisBP:0   MisRate:0.00%    MPKI:0.00
PC:15d98     Total:43946      MisBP:0   MisRate:0.00%    MPKI:0.00
PC:15dc6     Total:43962      MisBP:0   MisRate:0.00%    MPKI:0.00
PC:10eee     Total:170      MisBP:0   MisRate:0.00%    MPKI:0.00
PC:128f6     Total:214      MisBP:1   MisRate:0.47%    MPKI:0.00
PC:121be     Total:784      MisBP:1   MisRate:0.13%    MPKI:0.00
PC:11d68     Total:5      MisBP:1   MisRate:20.00%    MPKI:0.00
PC:11c66     Total:8      MisBP:1   MisRate:12.50%    MPKI:0.00
PC:13360     Total:3      MisBP:1   MisRate:33.33%    MPKI:0.00
PC:1417e     Total:47      MisBP:1   MisRate:2.13%    MPKI:0.00
PC:14bfe     Total:12690      MisBP:1   MisRate:0.01%    MPKI:0.00
PC:12eae     Total:39      MisBP:1   MisRate:2.56%    MPKI:0.00
PC:130ae     Total:870671      MisBP:1   MisRate:0.00%    MPKI:0.00
PC:14af2     Total:1      MisBP:1   MisRate:100.00%    MPKI:0.00
PC:125b2     Total:1      MisBP:1   MisRate:100.00%    MPKI:0.00
PC:15196     Total:44      MisBP:1   MisRate:2.27%    MPKI:0.00
PC:125f0     Total:180486      MisBP:1   MisRate:0.00%    MPKI:0.00
PC:165a8     Total:1      MisBP:1   MisRate:100.00%    MPKI:0.00
PC:15498     Total:46164      MisBP:1   MisRate:0.00%    MPKI:0.00
PC:39800     Total:1      MisBP:1   MisRate:100.00%    MPKI:0.00
PC:14f2e     Total:3      MisBP:1   MisRate:33.33%    MPKI:0.00
PC:167d0     Total:443      MisBP:1   MisRate:0.23%    MPKI:0.00
PC:151f8     Total:7      MisBP:1   MisRate:14.29%    MPKI:0.00
PC:13000     Total:4      MisBP:1   MisRate:25.00%    MPKI:0.00
PC:29404     Total:180      MisBP:1   MisRate:0.56%    MPKI:0.00
PC:12fde     Total:1      MisBP:1   MisRate:100.00%    MPKI:0.00
PC:11b88     Total:1      MisBP:1   MisRate:100.00%    MPKI:0.00
PC:11c96     Total:7      MisBP:1   MisRate:14.29%    MPKI:0.00
PC:12fd8     Total:1      MisBP:1   MisRate:100.00%    MPKI:0.00
PC:15408     Total:43314      MisBP:1   MisRate:0.00%    MPKI:0.00
PC:12e6c     Total:179778      MisBP:2   MisRate:0.00%    MPKI:0.00
PC:13074     Total:1882      MisBP:2   MisRate:0.11%    MPKI:0.00
PC:140d2     Total:1591      MisBP:2   MisRate:0.13%    MPKI:0.00
PC:12902     Total:164      MisBP:2   MisRate:1.22%    MPKI:0.00
PC:152f0     Total:370      MisBP:2   MisRate:0.54%    MPKI:0.00
PC:166c4     Total:30      MisBP:2   MisRate:6.67%    MPKI:0.00
PC:14f1e     Total:9      MisBP:2   MisRate:22.22%    MPKI:0.00
PC:10f9c     Total:166      MisBP:2   MisRate:1.20%    MPKI:0.00
PC:11cc6     Total:65545      MisBP:2   MisRate:0.00%    MPKI:0.00
PC:15504     Total:8      MisBP:2   MisRate:25.00%    MPKI:0.00
PC:14f16     Total:15791      MisBP:2   MisRate:0.01%    MPKI:0.00
PC:18fa0     Total:21      MisBP:2   MisRate:9.52%    MPKI:0.00
PC:11d8a     Total:259      MisBP:2   MisRate:0.77%    MPKI:0.00
PC:1104e     Total:160      MisBP:2   MisRate:1.25%    MPKI:0.00
PC:1666e     Total:10      MisBP:2   MisRate:20.00%    MPKI:0.00
PC:140be     Total:159      MisBP:2   MisRate:1.26%    MPKI:0.00
PC:16696     Total:25      MisBP:2   MisRate:8.00%    MPKI:0.00
PC:13354     Total:1122      MisBP:2   MisRate:0.18%    MPKI:0.00
PC:14bc4     Total:408      MisBP:2   MisRate:0.49%    MPKI:0.00
PC:165be     Total:15      MisBP:2   MisRate:13.33%    MPKI:0.00
PC:11c90     Total:50      MisBP:2   MisRate:4.00%    MPKI:0.00
PC:153d2     Total:7      MisBP:3   MisRate:42.86%    MPKI:0.00
PC:11bb4     Total:65551      MisBP:3   MisRate:0.00%    MPKI:0.00
PC:1272a     Total:164      MisBP:3   MisRate:1.83%    MPKI:0.00
PC:12efc     Total:166      MisBP:3   MisRate:1.81%    MPKI:0.00
PC:361f6     Total:148      MisBP:3   MisRate:2.03%    MPKI:0.00
PC:166a8     Total:31      MisBP:3   MisRate:9.68%    MPKI:0.00
PC:16896     Total:57      MisBP:3   MisRate:5.26%    MPKI:0.00
PC:166b6     Total:31      MisBP:3   MisRate:9.68%    MPKI:0.00
PC:15934     Total:44099      MisBP:3   MisRate:0.01%    MPKI:0.00
PC:12eda     Total:271      MisBP:3   MisRate:1.11%    MPKI:0.00
PC:1532a     Total:14      MisBP:3   MisRate:21.43%    MPKI:0.00
PC:14f58     Total:33      MisBP:3   MisRate:9.09%    MPKI:0.00
PC:16802     Total:3      MisBP:3   MisRate:100.00%    MPKI:0.00
PC:14162     Total:278      MisBP:3   MisRate:1.08%    MPKI:0.00
PC:15286     Total:440      MisBP:4   MisRate:0.91%    MPKI:0.00
PC:14bde     Total:194      MisBP:4   MisRate:2.06%    MPKI:0.00
PC:11d9a     Total:16      MisBP:4   MisRate:25.00%    MPKI:0.00
PC:12e56     Total:173      MisBP:4   MisRate:2.31%    MPKI:0.00
PC:12e5c     Total:213      MisBP:4   MisRate:1.88%    MPKI:0.00
PC:14bf6     Total:190      MisBP:4   MisRate:2.11%    MPKI:0.00
PC:125f6     Total:180487      MisBP:4   MisRate:0.00%    MPKI:0.00
PC:3970e     Total:4      MisBP:4   MisRate:100.00%    MPKI:0.00
PC:16768     Total:19      MisBP:4   MisRate:21.05%    MPKI:0.00
PC:141a8     Total:211      MisBP:4   MisRate:1.90%    MPKI:0.00
PC:1208c     Total:489      MisBP:4   MisRate:0.82%    MPKI:0.00
PC:10158     Total:693      MisBP:5   MisRate:0.72%    MPKI:0.00
PC:11d58     Total:175110      MisBP:5   MisRate:0.00%    MPKI:0.00
PC:18fb2     Total:17      MisBP:5   MisRate:29.41%    MPKI:0.00
PC:29818     Total:49      MisBP:5   MisRate:10.20%    MPKI:0.00
PC:151f0     Total:18      MisBP:5   MisRate:27.78%    MPKI:0.00
PC:18dc0     Total:5877      MisBP:5   MisRate:0.09%    MPKI:0.00
PC:167fa     Total:19      MisBP:5   MisRate:26.32%    MPKI:0.00
PC:16760     Total:14044      MisBP:6   MisRate:0.04%    MPKI:0.00
PC:18de2     Total:45      MisBP:6   MisRate:13.33%    MPKI:0.00
PC:10ecc     Total:179      MisBP:6   MisRate:3.35%    MPKI:0.00
PC:18d92     Total:4645      MisBP:6   MisRate:0.13%    MPKI:0.00
PC:11b12     Total:109117      MisBP:6   MisRate:0.01%    MPKI:0.00
PC:293d0     Total:178      MisBP:6   MisRate:3.37%    MPKI:0.00
PC:18e8c     Total:96      MisBP:7   MisRate:7.29%    MPKI:0.00
PC:29470     Total:168      MisBP:7   MisRate:4.17%    MPKI:0.00
PC:29654     Total:2226      MisBP:7   MisRate:0.31%    MPKI:0.00
PC:15576     Total:43228      MisBP:7   MisRate:0.02%    MPKI:0.00
PC:153cc     Total:39      MisBP:7   MisRate:17.95%    MPKI:0.00
PC:1516a     Total:44      MisBP:7   MisRate:15.91%    MPKI:0.00
PC:154fa     Total:31      MisBP:8   MisRate:25.81%    MPKI:0.00
PC:13346     Total:209      MisBP:8   MisRate:3.83%    MPKI:0.00
PC:11c50     Total:175084      MisBP:8   MisRate:0.00%    MPKI:0.00
PC:152aa     Total:23      MisBP:8   MisRate:34.78%    MPKI:0.00
PC:16606     Total:17276      MisBP:8   MisRate:0.05%    MPKI:0.00
PC:166e8     Total:31      MisBP:8   MisRate:25.81%    MPKI:0.00
PC:166f0     Total:11      MisBP:8   MisRate:72.73%    MPKI:0.00
PC:153a8     Total:133      MisBP:8   MisRate:6.02%    MPKI:0.00
PC:1697a     Total:984      MisBP:9   MisRate:0.91%    MPKI:0.00
PC:15444     Total:279      MisBP:9   MisRate:3.23%    MPKI:0.00
PC:18fd0     Total:14      MisBP:9   MisRate:64.29%    MPKI:0.00
PC:167f2     Total:2054      MisBP:9   MisRate:0.44%    MPKI:0.00
PC:154cc     Total:168      MisBP:10   MisRate:5.95%    MPKI:0.00
PC:16644     Total:944      MisBP:10   MisRate:1.06%    MPKI:0.00
PC:14168     Total:272      MisBP:10   MisRate:3.68%    MPKI:0.00
PC:13382     Total:194      MisBP:11   MisRate:5.67%    MPKI:0.00
PC:1308a     Total:46780      MisBP:11   MisRate:0.02%    MPKI:0.00
PC:1593e     Total:43275      MisBP:12   MisRate:0.03%    MPKI:0.00
PC:29348     Total:214      MisBP:12   MisRate:5.61%    MPKI:0.00
PC:1530e     Total:1786      MisBP:12   MisRate:0.67%    MPKI:0.00
PC:18e84     Total:13509      MisBP:13   MisRate:0.10%    MPKI:0.00
PC:29354     Total:56      MisBP:15   MisRate:26.79%    MPKI:0.00
PC:111de     Total:53      MisBP:15   MisRate:28.30%    MPKI:0.00
PC:151e8     Total:2205      MisBP:16   MisRate:0.73%    MPKI:0.00
PC:121f0     Total:752      MisBP:17   MisRate:2.26%    MPKI:0.00
PC:1414a     Total:254      MisBP:18   MisRate:7.09%    MPKI:0.00
PC:15120     Total:54      MisBP:18   MisRate:33.33%    MPKI:0.00
PC:18c2e     Total:10862      MisBP:20   MisRate:0.18%    MPKI:0.00
PC:12140     Total:460      MisBP:21   MisRate:4.57%    MPKI:0.00
PC:297a0     Total:59      MisBP:22   MisRate:37.29%    MPKI:0.00
PC:293c4     Total:214      MisBP:22   MisRate:10.28%    MPKI:0.00
PC:120e6     Total:402      MisBP:23   MisRate:5.72%    MPKI:0.00
PC:166e2     Total:455      MisBP:23   MisRate:5.05%    MPKI:0.00
PC:16692     Total:692      MisBP:24   MisRate:3.47%    MPKI:0.00
PC:16854     Total:14367      MisBP:26   MisRate:0.18%    MPKI:0.00
PC:15292     Total:454      MisBP:26   MisRate:5.73%    MPKI:0.00
PC:153c2     Total:5896      MisBP:27   MisRate:0.46%    MPKI:0.00
PC:18e28     Total:656      MisBP:30   MisRate:4.57%    MPKI:0.00
PC:11e2a     Total:55      MisBP:32   MisRate:58.18%    MPKI:0.00
PC:15302     Total:2128      MisBP:33   MisRate:1.55%    MPKI:0.00
PC:18e16     Total:6484      MisBP:37   MisRate:0.57%    MPKI:0.00
PC:12ea0     Total:179776      MisBP:38   MisRate:0.02%    MPKI:0.00
PC:18bf8     Total:10372      MisBP:38   MisRate:0.37%    MPKI:0.00
PC:29804     Total:2962      MisBP:40   MisRate:1.35%    MPKI:0.00
PC:1511c     Total:2371783      MisBP:41   MisRate:0.00%    MPKI:0.00
PC:18de0     Total:6012      MisBP:41   MisRate:0.68%    MPKI:0.00
PC:18c4e     Total:296      MisBP:42   MisRate:14.19%    MPKI:0.00
PC:11e26     Total:2881      MisBP:46   MisRate:1.60%    MPKI:0.00
PC:12180     Total:923      MisBP:50   MisRate:5.42%    MPKI:0.00
PC:1668c     Total:684      MisBP:50   MisRate:7.31%    MPKI:0.00
PC:166d4     Total:461      MisBP:52   MisRate:11.28%    MPKI:0.00
PC:18b64     Total:8805      MisBP:52   MisRate:0.59%    MPKI:0.00
PC:1227c     Total:142251      MisBP:57   MisRate:0.04%    MPKI:0.00
PC:18ca4     Total:8999      MisBP:66   MisRate:0.73%    MPKI:0.00
PC:14bb6     Total:410      MisBP:67   MisRate:16.34%    MPKI:0.00
PC:12182     Total:104      MisBP:69   MisRate:66.35%    MPKI:0.00
PC:130c8     Total:196088      MisBP:72   MisRate:0.04%    MPKI:0.00
PC:11dfc     Total:3549      MisBP:73   MisRate:2.06%    MPKI:0.00
PC:121dc     Total:773      MisBP:77   MisRate:9.96%    MPKI:0.00
PC:167cc     Total:464      MisBP:80   MisRate:17.24%    MPKI:0.00
PC:18cc4     Total:228      MisBP:83   MisRate:36.40%    MPKI:0.00
PC:12224     Total:376      MisBP:100   MisRate:26.60%    MPKI:0.00
PC:29454     Total:666      MisBP:162   MisRate:24.32%    MPKI:0.00
PC:1221c     Total:589398      MisBP:168   MisRate:0.03%    MPKI:0.00
PC:15440     Total:1309      MisBP:188   MisRate:14.36%    MPKI:0.00
PC:12da0     Total:18094      MisBP:192   MisRate:1.06%    MPKI:0.00
PC:130b6     Total:867788      MisBP:214   MisRate:0.02%    MPKI:0.00
PC:18c62     Total:49643      MisBP:214   MisRate:0.43%    MPKI:0.00
PC:1211e     Total:623514      MisBP:217   MisRate:0.03%    MPKI:0.00
PC:18cd8     Total:40980      MisBP:226   MisRate:0.55%    MPKI:0.00
PC:11f7a     Total:132130      MisBP:238   MisRate:0.18%    MPKI:0.00
PC:167e4     Total:2130      MisBP:242   MisRate:11.36%    MPKI:0.00
PC:167b8     Total:1952      MisBP:278   MisRate:14.24%    MPKI:0.00
PC:12d9c     Total:51059      MisBP:287   MisRate:0.56%    MPKI:0.00
PC:11e60     Total:95227      MisBP:311   MisRate:0.33%    MPKI:0.00
PC:1207e     Total:96881      MisBP:316   MisRate:0.33%    MPKI:0.00
PC:120ce     Total:67057      MisBP:349   MisRate:0.52%    MPKI:0.00
PC:121ae     Total:70372      MisBP:441   MisRate:0.63%    MPKI:0.00
PC:18d84     Total:5022      MisBP:526   MisRate:10.47%    MPKI:0.00
PC:12178     Total:646724      MisBP:577   MisRate:0.09%    MPKI:0.00
PC:18cfe     Total:38960      MisBP:583   MisRate:1.50%    MPKI:0.00
PC:18bce     Total:10399      MisBP:586   MisRate:5.64%    MPKI:0.00
PC:11e18     Total:5745      MisBP:728   MisRate:12.67%    MPKI:0.00
PC:18b5a     Total:8525      MisBP:912   MisRate:10.70%    MPKI:0.00
PC:18d68     Total:9405      MisBP:1515   MisRate:16.11%    MPKI:0.00
PC:18c88     Total:45447      MisBP:1985   MisRate:4.37%    MPKI:0.01
PC:11e7e     Total:49058      MisBP:1994   MisRate:4.06%    MPKI:0.01
PC:16740     Total:12705      MisBP:2984   MisRate:23.49%    MPKI:0.01
PC:165e6     Total:15855      MisBP:3078   MisRate:19.41%    MPKI:0.01
PC:13086     Total:717088      MisBP:3419   MisRate:0.48%    MPKI:0.01
PC:11aee     Total:128507      MisBP:3468   MisRate:2.70%    MPKI:0.01
PC:18c5a     Total:42473      MisBP:3653   MisRate:8.60%    MPKI:0.01
PC:16752     Total:19104      MisBP:3689   MisRate:19.31%    MPKI:0.01
PC:11ae6     Total:144441      MisBP:3800   MisRate:2.63%    MPKI:0.01
PC:11ada     Total:150331      MisBP:3904   MisRate:2.60%    MPKI:0.01
PC:18cd0     Total:38075      MisBP:3959   MisRate:10.40%    MPKI:0.01
PC:14a5a     Total:412002      MisBP:4630   MisRate:1.12%    MPKI:0.01
PC:123d8     Total:84566      MisBP:4743   MisRate:5.61%    MPKI:0.02
PC:18bec     Total:65851      MisBP:4796   MisRate:7.28%    MPKI:0.02
PC:165f8     Total:53810      MisBP:4861   MisRate:9.03%    MPKI:0.02
PC:12476     Total:32507      MisBP:4956   MisRate:15.25%    MPKI:0.02
PC:18dd0     Total:190828      MisBP:4963   MisRate:2.60%    MPKI:0.02
PC:11f64     Total:45870      MisBP:5016   MisRate:10.94%    MPKI:0.02
PC:12430     Total:29084      MisBP:5358   MisRate:18.42%    MPKI:0.02
PC:11ac4     Total:188672      MisBP:5439   MisRate:2.88%    MPKI:0.02
PC:11ad0     Total:178063      MisBP:5506   MisRate:3.09%    MPKI:0.02
PC:123f8     Total:33189      MisBP:6176   MisRate:18.61%    MPKI:0.02
PC:11aae     Total:255804      MisBP:6720   MisRate:2.63%    MPKI:0.02
PC:11e6a     Total:95183      MisBP:6850   MisRate:7.20%    MPKI:0.02
PC:11aba     Total:233094      MisBP:7642   MisRate:3.28%    MPKI:0.02
PC:11aa4     Total:270327      MisBP:7813   MisRate:2.89%    MPKI:0.03
PC:11a98     Total:307227      MisBP:8674   MisRate:2.82%    MPKI:0.03
PC:11a8e     Total:329154      MisBP:9078   MisRate:2.76%    MPKI:0.03
PC:11f08     Total:50095      MisBP:9846   MisRate:19.65%    MPKI:0.03
PC:124aa     Total:35966      MisBP:9975   MisRate:27.73%    MPKI:0.03
PC:12242     Total:79160      MisBP:11104   MisRate:14.03%    MPKI:0.04
PC:11a78     Total:391887      MisBP:11331   MisRate:2.89%    MPKI:0.04
PC:11a5e     Total:473484      MisBP:11875   MisRate:2.51%    MPKI:0.04
PC:11a82     Total:370807      MisBP:12604   MisRate:3.40%    MPKI:0.04
PC:11a6c     Total:457727      MisBP:15699   MisRate:3.43%    MPKI:0.05
PC:12418     Total:427270      MisBP:18153   MisRate:4.25%    MPKI:0.06
PC:12030     Total:2418887      MisBP:21132   MisRate:0.87%    MPKI:0.07
PC:11a3a     Total:654815      MisBP:22325   MisRate:3.41%    MPKI:0.07
PC:12d8a     Total:234940      MisBP:22393   MisRate:9.53%    MPKI:0.07
PC:11ec8     Total:114715      MisBP:22415   MisRate:19.54%    MPKI:0.07
PC:12454     Total:355267      MisBP:22859   MisRate:6.43%    MPKI:0.07
PC:11a20     Total:585161      MisBP:24297   MisRate:4.15%    MPKI:0.08
PC:123ba     Total:261561      MisBP:26074   MisRate:9.97%    MPKI:0.08
PC:11a28     Total:575948      MisBP:26711   MisRate:4.64%    MPKI:0.09
PC:11a4a     Total:605508      MisBP:26751   MisRate:4.42%    MPKI:0.09
PC:1234a     Total:388383      MisBP:27515   MisRate:7.08%    MPKI:0.09
PC:122f2     Total:479335      MisBP:29038   MisRate:6.06%    MPKI:0.09
PC:11f5c     Total:2897476      MisBP:29463   MisRate:1.02%    MPKI:0.10
PC:1236c     Total:474119      MisBP:30726   MisRate:6.48%    MPKI:0.10
PC:122be     Total:409635      MisBP:32054   MisRate:7.83%    MPKI:0.10
PC:11a04     Total:646046      MisBP:35129   MisRate:5.44%    MPKI:0.11
PC:123c4     Total:93752      MisBP:37337   MisRate:39.83%    MPKI:0.12
PC:12314     Total:512589      MisBP:37703   MisRate:7.36%    MPKI:0.12
PC:12102     Total:592289      MisBP:41184   MisRate:6.95%    MPKI:0.13
PC:1546e     Total:476258      MisBP:43159   MisRate:9.06%    MPKI:0.14
PC:15402     Total:562652      MisBP:43213   MisRate:7.68%    MPKI:0.14
PC:150d8     Total:362247      MisBP:44507   MisRate:12.29%    MPKI:0.14
PC:1215e     Total:621708      MisBP:47881   MisRate:7.70%    MPKI:0.15
PC:11a0c     Total:619654      MisBP:52346   MisRate:8.45%    MPKI:0.17
PC:130c2     Total:862681      MisBP:52924   MisRate:6.13%    MPKI:0.17
PC:119fc     Total:718724      MisBP:54131   MisRate:7.53%    MPKI:0.17
PC:119f4     Total:750403      MisBP:58396   MisRate:7.78%    MPKI:0.19
PC:12250     Total:397716      MisBP:67250   MisRate:16.91%    MPKI:0.22
PC:119e4     Total:884120      MisBP:67868   MisRate:7.68%    MPKI:0.22
PC:150e2     Total:723213      MisBP:112101   MisRate:15.50%    MPKI:0.36
PC:1238c     Total:616628      MisBP:133032   MisRate:21.57%    MPKI:0.43
PC:119dc     Total:1010071      MisBP:136263   MisRate:13.49%    MPKI:0.44
PC:1508e     Total:667575      MisBP:146901   MisRate:22.01%    MPKI:0.47
PC:12334     Total:728623      MisBP:150608   MisRate:20.67%    MPKI:0.49
PC:122dc     Total:662123      MisBP:158486   MisRate:23.94%    MPKI:0.51
PC:14a2e     Total:796574      MisBP:165896   MisRate:20.83%    MPKI:0.54
PC:12014     Total:1319969      MisBP:169746   MisRate:12.86%    MPKI:0.55
PC:119ec     Total:817589      MisBP:171443   MisRate:20.97%    MPKI:0.55
PC:12042     Total:1718886      MisBP:189657   MisRate:11.03%    MPKI:0.61
PC:119d4     Total:1119964      MisBP:190153   MisRate:16.98%    MPKI:0.61
PC:119cc     Total:1389275      MisBP:244353   MisRate:17.59%    MPKI:0.79
PC:119b6     Total:2145371      MisBP:253578   MisRate:11.82%    MPKI:0.82
PC:11f40     Total:2579589      MisBP:267608   MisRate:10.37%    MPKI:0.86
PC:150f4     Total:11459190      MisBP:286199   MisRate:2.50%    MPKI:0.92
PC:12040     Total:2545917      MisBP:323882   MisRate:12.72%    MPKI:1.04
PC:1508c     Total:2155305      MisBP:330976   MisRate:15.36%    MPKI:1.07
Totfetch:604312109  TotInsts:310000001  TotMis : inf%   MPKI : 15.25
=============finish sim!!!!!!=============
Done running SimPoint!
