Global frequency set at 1000000000000 ticks per second
 Register [printBranch()] ExitCallback !!!!!!! 
gem5 Simulator System.  https://www.gem5.org
gem5 is copyrighted software; use the --copyright option for details.

gem5 version 22.0.0.2
gem5 compiled Sep  7 2022 00:42:18
gem5 started Sep  7 2022 04:31:10
gem5 executing on a100, pid 2785510
command line: /data/zxf/gem5/gem5-prof/build/ARM/gem5.fast --outdir=/data/zxf/checkpoint/spec2006/473.astar/prof/astar_ckp_7 /data/zxf/gem5/gem5-prof/configs/example/se.py --cpu-type O3CPU --cpu-clock 1GHz --num-cpu 1 --l1d-hwp-type=BOPPrefetcher --caches --l2cache --l1i_size 32kB --l1d_size 32kB --l2_size 1MB --l1i_assoc 8 --l1d_assoc 8 --l2_assoc 16 --cacheline_size 64 --mem-type DDR3_2133_8x8 --mem-size 16GB --restore-simpoint-checkpoint -r 7 --checkpoint-dir /data/zxf/checkpoint/spec2006/473.astar/ckpt -c astar_base.gcc41-64bit -o rivers.cfg

info: Standard input is not a terminal, disabling listeners.
Resuming from /data/zxf/checkpoint/spec2006/473.astar/ckpt/cpt.simpoint_06_inst_291290000000_weight_0.114008_interval_300000000_warmup_10000000
Resuming from SimPoint #6, start_inst:291290000000, weight:0.114008, interval:300000000, warmup:10000000
Switch at curTick count:10000
Switched CPUS @ tick 197207127673500
[(<m5.objects.ArmCPU.ArmAtomicSimpleCPU object at 0x7f2f42844bb0>, <m5.objects.ArmCPU.ArmO3CPU object at 0x7f2f4285ce20>)]
switching cpus



+++++++++++++++++++++++++zxf print simpoint+++++++++++++++++++++++++++
Warmed up! Dumping and resetting stats!


=============start sim!!!!!!=============
PC:13a90     Total:1706      MisBP:0   MisRate:0.00%    MPKI:0.00
PC:2f47a     Total:1      MisBP:0   MisRate:0.00%    MPKI:0.00
PC:13a9c     Total:1655      MisBP:0   MisRate:0.00%    MPKI:0.00
PC:2f476     Total:1      MisBP:0   MisRate:0.00%    MPKI:0.00
PC:13a86     Total:1708      MisBP:0   MisRate:0.00%    MPKI:0.00
PC:2f474     Total:1      MisBP:0   MisRate:0.00%    MPKI:0.00
PC:13a84     Total:1711      MisBP:0   MisRate:0.00%    MPKI:0.00
PC:13a96     Total:1655      MisBP:0   MisRate:0.00%    MPKI:0.00
PC:13a94     Total:1659      MisBP:0   MisRate:0.00%    MPKI:0.00
PC:2f470     Total:1      MisBP:0   MisRate:0.00%    MPKI:0.00
PC:13a80     Total:1711      MisBP:0   MisRate:0.00%    MPKI:0.00
PC:13a92     Total:1700      MisBP:0   MisRate:0.00%    MPKI:0.00
PC:2f46e     Total:1      MisBP:0   MisRate:0.00%    MPKI:0.00
PC:13a8e     Total:1708      MisBP:0   MisRate:0.00%    MPKI:0.00
PC:2f46c     Total:1      MisBP:0   MisRate:0.00%    MPKI:0.00
PC:13a7c     Total:1771      MisBP:0   MisRate:0.00%    MPKI:0.00
PC:2f46a     Total:1      MisBP:0   MisRate:0.00%    MPKI:0.00
PC:13a8c     Total:1708      MisBP:0   MisRate:0.00%    MPKI:0.00
PC:2f466     Total:1      MisBP:0   MisRate:0.00%    MPKI:0.00
PC:13a76     Total:1771      MisBP:0   MisRate:0.00%    MPKI:0.00
PC:13a88     Total:1708      MisBP:0   MisRate:0.00%    MPKI:0.00
PC:2f464     Total:1      MisBP:0   MisRate:0.00%    MPKI:0.00
PC:13a74     Total:1772      MisBP:0   MisRate:0.00%    MPKI:0.00
PC:2f462     Total:1      MisBP:0   MisRate:0.00%    MPKI:0.00
PC:13a72     Total:1772      MisBP:0   MisRate:0.00%    MPKI:0.00
PC:2f496     Total:11      MisBP:0   MisRate:0.00%    MPKI:0.00
PC:13ab4     Total:6216      MisBP:0   MisRate:0.00%    MPKI:0.00
PC:13ac6     Total:29420      MisBP:0   MisRate:0.00%    MPKI:0.00
PC:2f4a2     Total:9      MisBP:0   MisRate:0.00%    MPKI:0.00
PC:13ab2     Total:6216      MisBP:0   MisRate:0.00%    MPKI:0.00
PC:13ac4     Total:5795      MisBP:0   MisRate:0.00%    MPKI:0.00
PC:2f4a0     Total:9      MisBP:0   MisRate:0.00%    MPKI:0.00
PC:13ab0     Total:1570      MisBP:0   MisRate:0.00%    MPKI:0.00
PC:13ac2     Total:5795      MisBP:0   MisRate:0.00%    MPKI:0.00
PC:2f49a     Total:22      MisBP:0   MisRate:0.00%    MPKI:0.00
PC:13aaa     Total:1615      MisBP:0   MisRate:0.00%    MPKI:0.00
PC:13abc     Total:6212      MisBP:0   MisRate:0.00%    MPKI:0.00
PC:2f45e     Total:1      MisBP:0   MisRate:0.00%    MPKI:0.00
PC:13aa6     Total:1655      MisBP:0   MisRate:0.00%    MPKI:0.00
PC:2f492     Total:11      MisBP:0   MisRate:0.00%    MPKI:0.00
PC:13aa2     Total:1655      MisBP:0   MisRate:0.00%    MPKI:0.00
PC:2f490     Total:11      MisBP:0   MisRate:0.00%    MPKI:0.00
PC:13aa0     Total:1655      MisBP:0   MisRate:0.00%    MPKI:0.00
PC:2f48e     Total:11      MisBP:0   MisRate:0.00%    MPKI:0.00
PC:2f48a     Total:11      MisBP:0   MisRate:0.00%    MPKI:0.00
PC:13aac     Total:1572      MisBP:0   MisRate:0.00%    MPKI:0.00
PC:2f488     Total:11      MisBP:0   MisRate:0.00%    MPKI:0.00
PC:13a98     Total:1655      MisBP:0   MisRate:0.00%    MPKI:0.00
PC:2f47e     Total:1      MisBP:0   MisRate:0.00%    MPKI:0.00
PC:13896     Total:38756      MisBP:0   MisRate:0.00%    MPKI:0.00
PC:13c50     Total:4      MisBP:0   MisRate:0.00%    MPKI:0.00
PC:13816     Total:5194315      MisBP:0   MisRate:0.00%    MPKI:0.00
PC:2cd32     Total:15      MisBP:0   MisRate:0.00%    MPKI:0.00
PC:138aa     Total:25771      MisBP:0   MisRate:0.00%    MPKI:0.00
PC:138a4     Total:25934      MisBP:0   MisRate:0.00%    MPKI:0.00
PC:13980     Total:38569      MisBP:0   MisRate:0.00%    MPKI:0.00
PC:1397a     Total:38632      MisBP:0   MisRate:0.00%    MPKI:0.00
PC:13c68     Total:6      MisBP:0   MisRate:0.00%    MPKI:0.00
PC:2d39e     Total:14      MisBP:0   MisRate:0.00%    MPKI:0.00
PC:1399c     Total:38490      MisBP:0   MisRate:0.00%    MPKI:0.00
PC:13996     Total:38495      MisBP:0   MisRate:0.00%    MPKI:0.00
PC:1398e     Total:38498      MisBP:0   MisRate:0.00%    MPKI:0.00
PC:2cd36     Total:15      MisBP:0   MisRate:0.00%    MPKI:0.00
PC:13892     Total:38727      MisBP:0   MisRate:0.00%    MPKI:0.00
PC:1388e     Total:38739      MisBP:0   MisRate:0.00%    MPKI:0.00
PC:1388c     Total:193734      MisBP:0   MisRate:0.00%    MPKI:0.00
PC:13888     Total:38754      MisBP:0   MisRate:0.00%    MPKI:0.00
PC:13886     Total:2      MisBP:0   MisRate:0.00%    MPKI:0.00
PC:13884     Total:2      MisBP:0   MisRate:0.00%    MPKI:0.00
PC:13882     Total:2      MisBP:0   MisRate:0.00%    MPKI:0.00
PC:13880     Total:148      MisBP:0   MisRate:0.00%    MPKI:0.00
PC:1387c     Total:225      MisBP:0   MisRate:0.00%    MPKI:0.00
PC:1387a     Total:225      MisBP:0   MisRate:0.00%    MPKI:0.00
PC:13878     Total:225      MisBP:0   MisRate:0.00%    MPKI:0.00
PC:2c88e     Total:8      MisBP:0   MisRate:0.00%    MPKI:0.00
PC:2f45a     Total:1      MisBP:0   MisRate:0.00%    MPKI:0.00
PC:13a78     Total:1771      MisBP:0   MisRate:0.00%    MPKI:0.00
PC:2f454     Total:1      MisBP:0   MisRate:0.00%    MPKI:0.00
PC:13a64     Total:1841      MisBP:0   MisRate:0.00%    MPKI:0.00
PC:2c8b0     Total:7      MisBP:0   MisRate:0.00%    MPKI:0.00
PC:10ec0     Total:3      MisBP:0   MisRate:0.00%    MPKI:0.00
PC:13a24     Total:7      MisBP:0   MisRate:0.00%    MPKI:0.00
PC:2cf40     Total:7      MisBP:0   MisRate:0.00%    MPKI:0.00
PC:2c89a     Total:7      MisBP:0   MisRate:0.00%    MPKI:0.00
PC:13a0e     Total:37      MisBP:0   MisRate:0.00%    MPKI:0.00
PC:13a06     Total:37      MisBP:0   MisRate:0.00%    MPKI:0.00
PC:2f4a4     Total:9      MisBP:0   MisRate:0.00%    MPKI:0.00
PC:13a02     Total:37      MisBP:0   MisRate:0.00%    MPKI:0.00
PC:2d3fc     Total:1      MisBP:0   MisRate:0.00%    MPKI:0.00
PC:2c884     Total:8      MisBP:0   MisRate:0.00%    MPKI:0.00
PC:2d9d8     Total:2      MisBP:0   MisRate:0.00%    MPKI:0.00
PC:139f8     Total:37      MisBP:0   MisRate:0.00%    MPKI:0.00
PC:2d3f2     Total:2      MisBP:0   MisRate:0.00%    MPKI:0.00
PC:13c74     Total:2      MisBP:0   MisRate:0.00%    MPKI:0.00
PC:13c6e     Total:2      MisBP:0   MisRate:0.00%    MPKI:0.00
PC:13c5c     Total:38      MisBP:0   MisRate:0.00%    MPKI:0.00
PC:13c54     Total:4      MisBP:0   MisRate:0.00%    MPKI:0.00
PC:1381a     Total:2481945      MisBP:0   MisRate:0.00%    MPKI:0.00
PC:2dc74     Total:1      MisBP:0   MisRate:0.00%    MPKI:0.00
PC:13b14     Total:4166      MisBP:0   MisRate:0.00%    MPKI:0.00
PC:2c99e     Total:2      MisBP:0   MisRate:0.00%    MPKI:0.00
PC:13b12     Total:4176      MisBP:0   MisRate:0.00%    MPKI:0.00
PC:13b0e     Total:4182      MisBP:0   MisRate:0.00%    MPKI:0.00
PC:13b0c     Total:4182      MisBP:0   MisRate:0.00%    MPKI:0.00
PC:2c994     Total:6      MisBP:0   MisRate:0.00%    MPKI:0.00
PC:13b08     Total:4192      MisBP:0   MisRate:0.00%    MPKI:0.00
PC:13b06     Total:4192      MisBP:0   MisRate:0.00%    MPKI:0.00
PC:13b02     Total:4190      MisBP:0   MisRate:0.00%    MPKI:0.00
PC:2c98c     Total:6      MisBP:0   MisRate:0.00%    MPKI:0.00
PC:13b00     Total:4190      MisBP:0   MisRate:0.00%    MPKI:0.00
PC:2ca0a     Total:2      MisBP:0   MisRate:0.00%    MPKI:0.00
PC:13b16     Total:4002      MisBP:0   MisRate:0.00%    MPKI:0.00
PC:13b7e     Total:8      MisBP:0   MisRate:0.00%    MPKI:0.00
PC:2ca08     Total:2      MisBP:0   MisRate:0.00%    MPKI:0.00
PC:11018     Total:6      MisBP:0   MisRate:0.00%    MPKI:0.00
PC:2dc72     Total:1      MisBP:0   MisRate:0.00%    MPKI:0.00
PC:13b7c     Total:8      MisBP:0   MisRate:0.00%    MPKI:0.00
PC:2ca06     Total:2      MisBP:0   MisRate:0.00%    MPKI:0.00
PC:11016     Total:6      MisBP:0   MisRate:0.00%    MPKI:0.00
PC:2dc70     Total:1      MisBP:0   MisRate:0.00%    MPKI:0.00
PC:13b7a     Total:8      MisBP:0   MisRate:0.00%    MPKI:0.00
PC:13b76     Total:8      MisBP:0   MisRate:0.00%    MPKI:0.00
PC:2c9fe     Total:3      MisBP:0   MisRate:0.00%    MPKI:0.00
PC:13b2a     Total:7029      MisBP:0   MisRate:0.00%    MPKI:0.00
PC:2c9c4     Total:8      MisBP:0   MisRate:0.00%    MPKI:0.00
PC:13b38     Total:2341      MisBP:0   MisRate:0.00%    MPKI:0.00
PC:2c9c2     Total:8      MisBP:0   MisRate:0.00%    MPKI:0.00
PC:13b36     Total:2341      MisBP:0   MisRate:0.00%    MPKI:0.00
PC:13b34     Total:2388      MisBP:0   MisRate:0.00%    MPKI:0.00
PC:2c9be     Total:8      MisBP:0   MisRate:0.00%    MPKI:0.00
PC:13b32     Total:2388      MisBP:0   MisRate:0.00%    MPKI:0.00
PC:13b2e     Total:7032      MisBP:0   MisRate:0.00%    MPKI:0.00
PC:2c9b8     Total:8      MisBP:0   MisRate:0.00%    MPKI:0.00
PC:13b2c     Total:7032      MisBP:0   MisRate:0.00%    MPKI:0.00
PC:2c9b6     Total:8      MisBP:0   MisRate:0.00%    MPKI:0.00
PC:1100e     Total:6      MisBP:0   MisRate:0.00%    MPKI:0.00
PC:2c9b2     Total:2      MisBP:0   MisRate:0.00%    MPKI:0.00
PC:13b26     Total:7060      MisBP:0   MisRate:0.00%    MPKI:0.00
PC:13b24     Total:7060      MisBP:0   MisRate:0.00%    MPKI:0.00
PC:2c9ae     Total:2      MisBP:0   MisRate:0.00%    MPKI:0.00
PC:13b20     Total:3987      MisBP:0   MisRate:0.00%    MPKI:0.00
PC:2c9aa     Total:2      MisBP:0   MisRate:0.00%    MPKI:0.00
PC:13b1e     Total:3992      MisBP:0   MisRate:0.00%    MPKI:0.00
PC:13b1c     Total:3992      MisBP:0   MisRate:0.00%    MPKI:0.00
PC:2c9a4     Total:2      MisBP:0   MisRate:0.00%    MPKI:0.00
PC:13b18     Total:4001      MisBP:0   MisRate:0.00%    MPKI:0.00
PC:2c9a2     Total:2      MisBP:0   MisRate:0.00%    MPKI:0.00
PC:13ad6     Total:33025      MisBP:0   MisRate:0.00%    MPKI:0.00
PC:13af8     Total:4476      MisBP:0   MisRate:0.00%    MPKI:0.00
PC:13af6     Total:4476      MisBP:0   MisRate:0.00%    MPKI:0.00
PC:13af4     Total:4601      MisBP:0   MisRate:0.00%    MPKI:0.00
PC:13af0     Total:4601      MisBP:0   MisRate:0.00%    MPKI:0.00
PC:13aee     Total:4606      MisBP:0   MisRate:0.00%    MPKI:0.00
PC:13aea     Total:4610      MisBP:0   MisRate:0.00%    MPKI:0.00
PC:13ae6     Total:4656      MisBP:0   MisRate:0.00%    MPKI:0.00
PC:13ae4     Total:4661      MisBP:0   MisRate:0.00%    MPKI:0.00
PC:13ae2     Total:4661      MisBP:0   MisRate:0.00%    MPKI:0.00
PC:13ade     Total:4662      MisBP:0   MisRate:0.00%    MPKI:0.00
PC:13ada     Total:28179      MisBP:0   MisRate:0.00%    MPKI:0.00
PC:13afa     Total:4474      MisBP:0   MisRate:0.00%    MPKI:0.00
PC:13ad4     Total:34260      MisBP:0   MisRate:0.00%    MPKI:0.00
PC:2f4b0     Total:3      MisBP:0   MisRate:0.00%    MPKI:0.00
PC:2f4ae     Total:1      MisBP:0   MisRate:0.00%    MPKI:0.00
PC:13abe     Total:5801      MisBP:0   MisRate:0.00%    MPKI:0.00
PC:13ad0     Total:34628      MisBP:0   MisRate:0.00%    MPKI:0.00
PC:13ace     Total:34641      MisBP:0   MisRate:0.00%    MPKI:0.00
PC:2f4aa     Total:2      MisBP:0   MisRate:0.00%    MPKI:0.00
PC:2f4a8     Total:1      MisBP:0   MisRate:0.00%    MPKI:0.00
PC:13ab8     Total:6216      MisBP:0   MisRate:0.00%    MPKI:0.00
PC:13aca     Total:29418      MisBP:0   MisRate:0.00%    MPKI:0.00
PC:13ac8     Total:29418      MisBP:0   MisRate:0.00%    MPKI:0.00
PC:13b66     Total:5731      MisBP:0   MisRate:0.00%    MPKI:0.00
PC:2dc68     Total:1      MisBP:0   MisRate:0.00%    MPKI:0.00
PC:13b72     Total:7      MisBP:0   MisRate:0.00%    MPKI:0.00
PC:2c9fc     Total:3      MisBP:0   MisRate:0.00%    MPKI:0.00
PC:13b70     Total:7      MisBP:0   MisRate:0.00%    MPKI:0.00
PC:2c9f8     Total:3      MisBP:0   MisRate:0.00%    MPKI:0.00
PC:13b6c     Total:59      MisBP:0   MisRate:0.00%    MPKI:0.00
PC:2c9f4     Total:3      MisBP:0   MisRate:0.00%    MPKI:0.00
PC:13b68     Total:59      MisBP:0   MisRate:0.00%    MPKI:0.00
PC:2c9f2     Total:3      MisBP:0   MisRate:0.00%    MPKI:0.00
PC:11002     Total:6      MisBP:0   MisRate:0.00%    MPKI:0.00
PC:2dc5c     Total:1      MisBP:0   MisRate:0.00%    MPKI:0.00
PC:13c7a     Total:2      MisBP:0   MisRate:0.00%    MPKI:0.00
PC:2c9f0     Total:3      MisBP:0   MisRate:0.00%    MPKI:0.00
PC:2dc5a     Total:1      MisBP:0   MisRate:0.00%    MPKI:0.00
PC:13b64     Total:5731      MisBP:0   MisRate:0.00%    MPKI:0.00
PC:2c9ee     Total:3      MisBP:0   MisRate:0.00%    MPKI:0.00
PC:10ffe     Total:8      MisBP:0   MisRate:0.00%    MPKI:0.00
PC:13b62     Total:5733      MisBP:0   MisRate:0.00%    MPKI:0.00
PC:2c9ec     Total:3      MisBP:0   MisRate:0.00%    MPKI:0.00
PC:10ffc     Total:9      MisBP:0   MisRate:0.00%    MPKI:0.00
PC:2dc56     Total:1      MisBP:0   MisRate:0.00%    MPKI:0.00
PC:13b60     Total:5733      MisBP:0   MisRate:0.00%    MPKI:0.00
PC:13afe     Total:4476      MisBP:0   MisRate:0.00%    MPKI:0.00
PC:2d504     Total:11      MisBP:0   MisRate:0.00%    MPKI:0.00
PC:2cc5e     Total:6      MisBP:0   MisRate:0.00%    MPKI:0.00
PC:2d508     Total:11      MisBP:0   MisRate:0.00%    MPKI:0.00
PC:2d8b6     Total:7      MisBP:0   MisRate:0.00%    MPKI:0.00
PC:138d6     Total:25200      MisBP:0   MisRate:0.00%    MPKI:0.00
PC:2cdf2     Total:3      MisBP:0   MisRate:0.00%    MPKI:0.00
PC:137d8     Total:3751481      MisBP:0   MisRate:0.00%    MPKI:0.00
PC:13860     Total:1361      MisBP:0   MisRate:0.00%    MPKI:0.00
PC:13762     Total:2955609      MisBP:0   MisRate:0.00%    MPKI:0.00
PC:2d7ca     Total:13      MisBP:0   MisRate:0.00%    MPKI:0.00
PC:137ea     Total:2872731      MisBP:0   MisRate:0.00%    MPKI:0.00
PC:136d0     Total:3364651      MisBP:0   MisRate:0.00%    MPKI:0.00
PC:2cc5a     Total:6      MisBP:0   MisRate:0.00%    MPKI:0.00
PC:136d4     Total:3281271      MisBP:0   MisRate:0.00%    MPKI:0.00
PC:33116     Total:2      MisBP:0   MisRate:0.00%    MPKI:0.00
PC:2cdee     Total:3      MisBP:0   MisRate:0.00%    MPKI:0.00
PC:137d4     Total:3754289      MisBP:0   MisRate:0.00%    MPKI:0.00
PC:1385c     Total:1361      MisBP:0   MisRate:0.00%    MPKI:0.00
PC:2d73e     Total:10      MisBP:0   MisRate:0.00%    MPKI:0.00
PC:1375e     Total:2963078      MisBP:0   MisRate:0.00%    MPKI:0.00
PC:2cc7a     Total:1      MisBP:0   MisRate:0.00%    MPKI:0.00
PC:137e6     Total:2873827      MisBP:0   MisRate:0.00%    MPKI:0.00
PC:1385a     Total:1362      MisBP:0   MisRate:0.00%    MPKI:0.00
PC:2cd76     Total:1      MisBP:0   MisRate:0.00%    MPKI:0.00
PC:1375c     Total:2971296      MisBP:0   MisRate:0.00%    MPKI:0.00
PC:1376a     Total:2918666      MisBP:0   MisRate:0.00%    MPKI:0.00
PC:2d9dc     Total:2      MisBP:0   MisRate:0.00%    MPKI:0.00
PC:139fc     Total:370      MisBP:0   MisRate:0.00%    MPKI:0.00
PC:2d3f6     Total:2      MisBP:0   MisRate:0.00%    MPKI:0.00
PC:2d7da     Total:9      MisBP:0   MisRate:0.00%    MPKI:0.00
PC:137fa     Total:9811821      MisBP:0   MisRate:0.00%    MPKI:0.00
PC:2ef8a     Total:12      MisBP:0   MisRate:0.00%    MPKI:0.00
PC:2cab6     Total:2      MisBP:0   MisRate:0.00%    MPKI:0.00
PC:2d8be     Total:7      MisBP:0   MisRate:0.00%    MPKI:0.00
PC:138de     Total:25167      MisBP:0   MisRate:0.00%    MPKI:0.00
PC:137e0     Total:3749013      MisBP:0   MisRate:0.00%    MPKI:0.00
PC:2d74a     Total:17      MisBP:0   MisRate:0.00%    MPKI:0.00
PC:137e4     Total:2873846      MisBP:0   MisRate:0.00%    MPKI:0.00
PC:2d59e     Total:12      MisBP:0   MisRate:0.00%    MPKI:0.00
PC:2d7d2     Total:9      MisBP:0   MisRate:0.00%    MPKI:0.00
PC:137f8     Total:9836286      MisBP:0   MisRate:0.00%    MPKI:0.00
PC:13828     Total:3033364      MisBP:0   MisRate:0.00%    MPKI:0.00
PC:2d7ce     Total:13      MisBP:0   MisRate:0.00%    MPKI:0.00
PC:137ee     Total:6976227      MisBP:0   MisRate:0.00%    MPKI:0.00
PC:136de     Total:3265570      MisBP:0   MisRate:0.00%    MPKI:0.00
PC:2d512     Total:11      MisBP:0   MisRate:0.00%    MPKI:0.00
PC:33124     Total:1      MisBP:0   MisRate:0.00%    MPKI:0.00
PC:2cdfc     Total:3      MisBP:0   MisRate:0.00%    MPKI:0.00
PC:137f4     Total:9843022      MisBP:0   MisRate:0.00%    MPKI:0.00
PC:2d798     Total:1      MisBP:0   MisRate:0.00%    MPKI:0.00
PC:13c56     Total:9      MisBP:0   MisRate:0.00%    MPKI:0.00
PC:2efac     Total:44      MisBP:0   MisRate:0.00%    MPKI:0.00
PC:2cad8     Total:1      MisBP:0   MisRate:0.00%    MPKI:0.00
PC:14826     Total:15      MisBP:0   MisRate:0.00%    MPKI:0.00
PC:13852     Total:752580      MisBP:0   MisRate:0.00%    MPKI:0.00
PC:136b4     Total:3583574      MisBP:0   MisRate:0.00%    MPKI:0.00
PC:2da7c     Total:1      MisBP:0   MisRate:0.00%    MPKI:0.00
PC:2d4e8     Total:6      MisBP:0   MisRate:0.00%    MPKI:0.00
PC:330fa     Total:1      MisBP:0   MisRate:0.00%    MPKI:0.00
PC:138b6     Total:3152171      MisBP:0   MisRate:0.00%    MPKI:0.00
PC:2cdd2     Total:5      MisBP:0   MisRate:0.00%    MPKI:0.00
PC:10ada     Total:1699      MisBP:0   MisRate:0.00%    MPKI:0.00
PC:137b8     Total:859639      MisBP:0   MisRate:0.00%    MPKI:0.00
PC:136b8     Total:3582295      MisBP:0   MisRate:0.00%    MPKI:0.00
PC:2d4ec     Total:6      MisBP:0   MisRate:0.00%    MPKI:0.00
PC:330fe     Total:1      MisBP:0   MisRate:0.00%    MPKI:0.00
PC:138ba     Total:3149906      MisBP:0   MisRate:0.00%    MPKI:0.00
PC:2d79c     Total:1      MisBP:0   MisRate:0.00%    MPKI:0.00
PC:10b42     Total:2      MisBP:0   MisRate:0.00%    MPKI:0.00
PC:137bc     Total:2974012      MisBP:0   MisRate:0.00%    MPKI:0.00
PC:136ba     Total:3578292      MisBP:0   MisRate:0.00%    MPKI:0.00
PC:2cc44     Total:6      MisBP:0   MisRate:0.00%    MPKI:0.00
PC:2d4ee     Total:6      MisBP:0   MisRate:0.00%    MPKI:0.00
PC:1384e     Total:752677      MisBP:0   MisRate:0.00%    MPKI:0.00
PC:136ac     Total:36379679      MisBP:0   MisRate:0.00%    MPKI:0.00
PC:138ae     Total:3152935      MisBP:0   MisRate:0.00%    MPKI:0.00
PC:137b0     Total:860028      MisBP:0   MisRate:0.00%    MPKI:0.00
PC:2d5e4     Total:1      MisBP:0   MisRate:0.00%    MPKI:0.00
PC:13750     Total:30348852      MisBP:0   MisRate:0.00%    MPKI:0.00
PC:2cc6c     Total:6      MisBP:0   MisRate:0.00%    MPKI:0.00
PC:2ef82     Total:13      MisBP:0   MisRate:0.00%    MPKI:0.00
PC:2caae     Total:2      MisBP:0   MisRate:0.00%    MPKI:0.00
PC:147fc     Total:15      MisBP:0   MisRate:0.00%    MPKI:0.00
PC:2d584     Total:21      MisBP:0   MisRate:0.00%    MPKI:0.00
PC:13c52     Total:4      MisBP:0   MisRate:0.00%    MPKI:0.00
PC:2c888     Total:8      MisBP:0   MisRate:0.00%    MPKI:0.00
PC:2cd6a     Total:1      MisBP:0   MisRate:0.00%    MPKI:0.00
PC:136b0     Total:3588774      MisBP:0   MisRate:0.00%    MPKI:0.00
PC:2d4e4     Total:6      MisBP:0   MisRate:0.00%    MPKI:0.00
PC:330f6     Total:1      MisBP:0   MisRate:0.00%    MPKI:0.00
PC:138b2     Total:3152216      MisBP:0   MisRate:0.00%    MPKI:0.00
PC:2cdce     Total:5      MisBP:0   MisRate:0.00%    MPKI:0.00
PC:2d794     Total:1      MisBP:0   MisRate:0.00%    MPKI:0.00
PC:137b4     Total:859831      MisBP:0   MisRate:0.00%    MPKI:0.00
PC:2d546     Total:14      MisBP:0   MisRate:0.00%    MPKI:0.00
PC:2d5e8     Total:1      MisBP:0   MisRate:0.00%    MPKI:0.00
PC:2d734     Total:10      MisBP:0   MisRate:0.00%    MPKI:0.00
PC:2d514     Total:11      MisBP:0   MisRate:0.00%    MPKI:0.00
PC:2cc70     Total:6      MisBP:0   MisRate:0.00%    MPKI:0.00
PC:13754     Total:2999288      MisBP:0   MisRate:0.00%    MPKI:0.00
PC:2d51a     Total:11      MisBP:0   MisRate:0.00%    MPKI:0.00
PC:3312c     Total:1      MisBP:0   MisRate:0.00%    MPKI:0.00
PC:138e6     Total:13367      MisBP:0   MisRate:0.00%    MPKI:0.00
PC:136e4     Total:3257935      MisBP:0   MisRate:0.00%    MPKI:0.00
PC:2d518     Total:11      MisBP:0   MisRate:0.00%    MPKI:0.00
PC:2d8c2     Total:7      MisBP:0   MisRate:0.00%    MPKI:0.00
PC:138e2     Total:13367      MisBP:0   MisRate:0.00%    MPKI:0.00
PC:2cdfe     Total:3      MisBP:0   MisRate:0.00%    MPKI:0.00
PC:136e0     Total:3260314      MisBP:0   MisRate:0.00%    MPKI:0.00
PC:2cc6a     Total:6      MisBP:0   MisRate:0.00%    MPKI:0.00
PC:136e6     Total:3257111      MisBP:0   MisRate:0.00%    MPKI:0.00
PC:33126     Total:1      MisBP:0   MisRate:0.00%    MPKI:0.00
PC:136d8     Total:3276804      MisBP:0   MisRate:0.00%    MPKI:0.00
PC:2d50c     Total:11      MisBP:0   MisRate:0.00%    MPKI:0.00
PC:3311e     Total:1      MisBP:0   MisRate:0.00%    MPKI:0.00
PC:136ce     Total:3370251      MisBP:0   MisRate:0.00%    MPKI:0.00
PC:2cc58     Total:6      MisBP:0   MisRate:0.00%    MPKI:0.00
PC:2d502     Total:10      MisBP:0   MisRate:0.00%    MPKI:0.00
PC:33114     Total:1      MisBP:0   MisRate:0.00%    MPKI:0.00
PC:136ca     Total:3386255      MisBP:0   MisRate:0.00%    MPKI:0.00
PC:136b2     Total:3587239      MisBP:0   MisRate:0.00%    MPKI:0.00
PC:13c60     Total:38      MisBP:0   MisRate:0.00%    MPKI:0.00
PC:136fc     Total:3156764      MisBP:0   MisRate:0.00%    MPKI:0.00
PC:13876     Total:225      MisBP:0   MisRate:0.00%    MPKI:0.00
PC:13872     Total:225      MisBP:0   MisRate:0.00%    MPKI:0.00
PC:1386e     Total:225      MisBP:0   MisRate:0.00%    MPKI:0.00
PC:1386c     Total:225      MisBP:0   MisRate:0.00%    MPKI:0.00
PC:13712     Total:20971137      MisBP:0   MisRate:0.00%    MPKI:0.00
PC:13710     Total:3052419      MisBP:0   MisRate:0.00%    MPKI:0.00
PC:1370c     Total:3053855      MisBP:0   MisRate:0.00%    MPKI:0.00
PC:1370a     Total:3055521      MisBP:0   MisRate:0.00%    MPKI:0.00
PC:13706     Total:3056619      MisBP:0   MisRate:0.00%    MPKI:0.00
PC:13702     Total:3057555      MisBP:0   MisRate:0.00%    MPKI:0.00
PC:136fe     Total:3065454      MisBP:0   MisRate:0.00%    MPKI:0.00
PC:2c8b2     Total:7      MisBP:0   MisRate:0.00%    MPKI:0.00
PC:136fa     Total:3159385      MisBP:0   MisRate:0.00%    MPKI:0.00
PC:136f6     Total:3160483      MisBP:0   MisRate:0.00%    MPKI:0.00
PC:136f4     Total:3161610      MisBP:0   MisRate:0.00%    MPKI:0.00
PC:136f2     Total:3162133      MisBP:0   MisRate:0.00%    MPKI:0.00
PC:2d526     Total:1      MisBP:0   MisRate:0.00%    MPKI:0.00
PC:136ee     Total:3166815      MisBP:0   MisRate:0.00%    MPKI:0.00
PC:2d8cc     Total:7      MisBP:0   MisRate:0.00%    MPKI:0.00
PC:138ec     Total:53500      MisBP:0   MisRate:0.00%    MPKI:0.00
PC:136ea     Total:3167833      MisBP:0   MisRate:0.00%    MPKI:0.00
PC:2d8c8     Total:7      MisBP:0   MisRate:0.00%    MPKI:0.00
PC:138e8     Total:13367      MisBP:0   MisRate:0.00%    MPKI:0.00
PC:2d8bc     Total:7      MisBP:0   MisRate:0.00%    MPKI:0.00
PC:33118     Total:1      MisBP:0   MisRate:0.00%    MPKI:0.00
PC:138d4     Total:25201      MisBP:0   MisRate:0.00%    MPKI:0.00
PC:2cdf0     Total:3      MisBP:0   MisRate:0.00%    MPKI:0.00
PC:137d6     Total:3752149      MisBP:0   MisRate:0.00%    MPKI:0.00
PC:1385e     Total:1361      MisBP:0   MisRate:0.00%    MPKI:0.00
PC:2cd7a     Total:1      MisBP:0   MisRate:0.00%    MPKI:0.00
PC:13c64     Total:6      MisBP:0   MisRate:0.00%    MPKI:0.00
PC:136da     Total:3271592      MisBP:0   MisRate:0.00%    MPKI:0.00
PC:2cc64     Total:6      MisBP:0   MisRate:0.00%    MPKI:0.00
PC:2d50e     Total:11      MisBP:0   MisRate:0.00%    MPKI:0.00
PC:33120     Total:1      MisBP:0   MisRate:0.00%    MPKI:0.00
PC:2d506     Total:11      MisBP:0   MisRate:0.00%    MPKI:0.00
PC:138dc     Total:25167      MisBP:0   MisRate:0.00%    MPKI:0.00
PC:2cdf8     Total:3      MisBP:0   MisRate:0.00%    MPKI:0.00
PC:137de     Total:3750165      MisBP:0   MisRate:0.00%    MPKI:0.00
PC:13c6a     Total:6      MisBP:0   MisRate:0.00%    MPKI:0.00
PC:13866     Total:3194481      MisBP:0   MisRate:0.00%    MPKI:0.00
PC:137f0     Total:6973041      MisBP:0   MisRate:0.00%    MPKI:0.00
PC:2d7dc     Total:8      MisBP:0   MisRate:0.00%    MPKI:0.00
PC:137fc     Total:9799689      MisBP:0   MisRate:0.00%    MPKI:0.00
PC:138ac     Total:3154255      MisBP:0   MisRate:0.00%    MPKI:0.00
PC:13836     Total:808989      MisBP:0   MisRate:0.00%    MPKI:0.00
PC:2cd52     Total:15      MisBP:0   MisRate:0.00%    MPKI:0.00
PC:137d0     Total:3755124      MisBP:0   MisRate:0.00%    MPKI:0.00
PC:13824     Total:2475455      MisBP:0   MisRate:0.00%    MPKI:0.00
PC:138b8     Total:3151605      MisBP:0   MisRate:0.00%    MPKI:0.00
PC:2d79a     Total:1      MisBP:0   MisRate:0.00%    MPKI:0.00
PC:10b40     Total:2      MisBP:0   MisRate:0.00%    MPKI:0.00
PC:137ba     Total:857905      MisBP:0   MisRate:0.00%    MPKI:0.00
PC:138b0     Total:3152040      MisBP:0   MisRate:0.00%    MPKI:0.00
PC:136cc     Total:3378347      MisBP:0   MisRate:0.00%    MPKI:0.00
PC:2d500     Total:10      MisBP:0   MisRate:0.00%    MPKI:0.00
PC:33112     Total:1      MisBP:0   MisRate:0.00%    MPKI:0.00
PC:138ce     Total:3168913      MisBP:0   MisRate:0.00%    MPKI:0.00
PC:2cdea     Total:3      MisBP:0   MisRate:0.00%    MPKI:0.00
PC:13b3a     Total:2330      MisBP:0   MisRate:0.00%    MPKI:0.00
PC:136d6     Total:3278406      MisBP:0   MisRate:0.00%    MPKI:0.00
PC:2cc60     Total:6      MisBP:0   MisRate:0.00%    MPKI:0.00
PC:2d50a     Total:11      MisBP:0   MisRate:0.00%    MPKI:0.00
PC:3311c     Total:1      MisBP:0   MisRate:0.00%    MPKI:0.00
PC:2d8b8     Total:7      MisBP:0   MisRate:0.00%    MPKI:0.00
PC:138d8     Total:25198      MisBP:0   MisRate:0.00%    MPKI:0.00
PC:137da     Total:3751018      MisBP:0   MisRate:0.00%    MPKI:0.00
PC:13862     Total:1361      MisBP:0   MisRate:0.00%    MPKI:0.00
PC:2cd7e     Total:1      MisBP:0   MisRate:0.00%    MPKI:0.00
PC:136d2     Total:3362122      MisBP:0   MisRate:0.00%    MPKI:0.00
PC:2cc5c     Total:6      MisBP:0   MisRate:0.00%    MPKI:0.00
PC:13a54     Total:1932      MisBP:0   MisRate:0.00%    MPKI:0.00
PC:2c89e     Total:7      MisBP:0   MisRate:0.00%    MPKI:0.00
PC:2f49e     Total:9      MisBP:0   MisRate:0.00%    MPKI:0.00
PC:13aae     Total:1572      MisBP:0   MisRate:0.00%    MPKI:0.00
PC:2f460     Total:1      MisBP:0   MisRate:0.00%    MPKI:0.00
PC:13a70     Total:1772      MisBP:0   MisRate:0.00%    MPKI:0.00
PC:2f458     Total:1      MisBP:0   MisRate:0.00%    MPKI:0.00
PC:13a68     Total:1841      MisBP:0   MisRate:0.00%    MPKI:0.00
PC:2f44c     Total:1      MisBP:0   MisRate:0.00%    MPKI:0.00
PC:13a5c     Total:1841      MisBP:0   MisRate:0.00%    MPKI:0.00
PC:2f448     Total:12      MisBP:0   MisRate:0.00%    MPKI:0.00
PC:13a58     Total:1841      MisBP:0   MisRate:0.00%    MPKI:0.00
PC:2f444     Total:12      MisBP:0   MisRate:0.00%    MPKI:0.00
PC:2c8a2     Total:7      MisBP:0   MisRate:0.00%    MPKI:0.00
PC:2f438     Total:14      MisBP:0   MisRate:0.00%    MPKI:0.00
PC:2cf64     Total:1      MisBP:0   MisRate:0.00%    MPKI:0.00
PC:2f430     Total:28      MisBP:0   MisRate:0.00%    MPKI:0.00
PC:2cf5c     Total:1      MisBP:0   MisRate:0.00%    MPKI:0.00
PC:13a40     Total:1932      MisBP:0   MisRate:0.00%    MPKI:0.00
PC:2c886     Total:8      MisBP:0   MisRate:0.00%    MPKI:0.00
PC:2d9da     Total:2      MisBP:0   MisRate:0.00%    MPKI:0.00
PC:2c882     Total:8      MisBP:0   MisRate:0.00%    MPKI:0.00
PC:2d9d6     Total:1      MisBP:0   MisRate:0.00%    MPKI:0.00
PC:2d9d4     Total:1      MisBP:0   MisRate:0.00%    MPKI:0.00
PC:2c87e     Total:80      MisBP:0   MisRate:0.00%    MPKI:0.00
PC:2c9de     Total:8      MisBP:0   MisRate:0.00%    MPKI:0.00
PC:2ca34     Total:8      MisBP:0   MisRate:0.00%    MPKI:0.00
PC:2ca28     Total:2      MisBP:0   MisRate:0.00%    MPKI:0.00
PC:2ca20     Total:2      MisBP:0   MisRate:0.00%    MPKI:0.00
PC:2ca16     Total:2      MisBP:0   MisRate:0.00%    MPKI:0.00
PC:2ca12     Total:2      MisBP:0   MisRate:0.00%    MPKI:0.00
PC:2ca04     Total:2      MisBP:0   MisRate:0.00%    MPKI:0.00
PC:2dc6e     Total:1      MisBP:0   MisRate:0.00%    MPKI:0.00
PC:2ca00     Total:2      MisBP:0   MisRate:0.00%    MPKI:0.00
PC:2c9f6     Total:3      MisBP:0   MisRate:0.00%    MPKI:0.00
PC:11006     Total:6      MisBP:0   MisRate:0.00%    MPKI:0.00
PC:2dc60     Total:1      MisBP:0   MisRate:0.00%    MPKI:0.00
PC:2d9d2     Total:1      MisBP:0   MisRate:0.00%    MPKI:0.00
PC:10fee     Total:5      MisBP:0   MisRate:0.00%    MPKI:0.00
PC:2dc48     Total:1      MisBP:0   MisRate:0.00%    MPKI:0.00
PC:2c9d2     Total:8      MisBP:0   MisRate:0.00%    MPKI:0.00
PC:10fe2     Total:5      MisBP:0   MisRate:0.00%    MPKI:0.00
PC:2cc54     Total:6      MisBP:0   MisRate:0.00%    MPKI:0.00
PC:2cc50     Total:6      MisBP:0   MisRate:0.00%    MPKI:0.00
PC:2cc4c     Total:6      MisBP:0   MisRate:0.00%    MPKI:0.00
PC:2c9b4     Total:2      MisBP:0   MisRate:0.00%    MPKI:0.00
PC:2c9a6     Total:2      MisBP:0   MisRate:0.00%    MPKI:0.00
PC:2c99c     Total:2      MisBP:0   MisRate:0.00%    MPKI:0.00
PC:2c990     Total:6      MisBP:0   MisRate:0.00%    MPKI:0.00
PC:2d924     Total:1      MisBP:0   MisRate:0.00%    MPKI:0.00
PC:2d998     Total:6      MisBP:0   MisRate:0.00%    MPKI:0.00
PC:2d994     Total:6      MisBP:0   MisRate:0.00%    MPKI:0.00
PC:2d990     Total:6      MisBP:0   MisRate:0.00%    MPKI:0.00
PC:2d98c     Total:6      MisBP:0   MisRate:0.00%    MPKI:0.00
PC:2d98a     Total:6      MisBP:0   MisRate:0.00%    MPKI:0.00
PC:2d988     Total:6      MisBP:0   MisRate:0.00%    MPKI:0.00
PC:2d986     Total:6      MisBP:0   MisRate:0.00%    MPKI:0.00
PC:2d938     Total:1      MisBP:0   MisRate:0.00%    MPKI:0.00
PC:2d934     Total:1      MisBP:0   MisRate:0.00%    MPKI:0.00
PC:2d930     Total:1      MisBP:0   MisRate:0.00%    MPKI:0.00
PC:2d92c     Total:1      MisBP:0   MisRate:0.00%    MPKI:0.00
PC:2d928     Total:1      MisBP:0   MisRate:0.00%    MPKI:0.00
PC:2d99a     Total:6      MisBP:0   MisRate:0.00%    MPKI:0.00
PC:2d920     Total:1      MisBP:0   MisRate:0.00%    MPKI:0.00
PC:2d91c     Total:1      MisBP:0   MisRate:0.00%    MPKI:0.00
PC:2d918     Total:1      MisBP:0   MisRate:0.00%    MPKI:0.00
PC:2d914     Total:1      MisBP:0   MisRate:0.00%    MPKI:0.00
PC:2d910     Total:1      MisBP:0   MisRate:0.00%    MPKI:0.00
PC:2d90e     Total:1      MisBP:0   MisRate:0.00%    MPKI:0.00
PC:2d90a     Total:1      MisBP:0   MisRate:0.00%    MPKI:0.00
PC:2d906     Total:1      MisBP:0   MisRate:0.00%    MPKI:0.00
PC:2d902     Total:1      MisBP:0   MisRate:0.00%    MPKI:0.00
PC:2d8fe     Total:1      MisBP:0   MisRate:0.00%    MPKI:0.00
PC:2dcfe     Total:1      MisBP:0   MisRate:0.00%    MPKI:0.00
PC:2d9b6     Total:9      MisBP:0   MisRate:0.00%    MPKI:0.00
PC:2c87c     Total:8      MisBP:0   MisRate:0.00%    MPKI:0.00
PC:2d9d0     Total:1      MisBP:0   MisRate:0.00%    MPKI:0.00
PC:2d9ce     Total:1      MisBP:0   MisRate:0.00%    MPKI:0.00
PC:2d9cc     Total:1      MisBP:0   MisRate:0.00%    MPKI:0.00
PC:2d9ca     Total:7      MisBP:0   MisRate:0.00%    MPKI:0.00
PC:2d9c6     Total:7      MisBP:0   MisRate:0.00%    MPKI:0.00
PC:2d9c4     Total:7      MisBP:0   MisRate:0.00%    MPKI:0.00
PC:2d9c2     Total:7      MisBP:0   MisRate:0.00%    MPKI:0.00
PC:2d9be     Total:7      MisBP:0   MisRate:0.00%    MPKI:0.00
PC:2d9bc     Total:9      MisBP:0   MisRate:0.00%    MPKI:0.00
PC:2d9b8     Total:9      MisBP:0   MisRate:0.00%    MPKI:0.00
PC:2ca3c     Total:8      MisBP:0   MisRate:0.00%    MPKI:0.00
PC:2d9b4     Total:9      MisBP:0   MisRate:0.00%    MPKI:0.00
PC:2d9b2     Total:9      MisBP:0   MisRate:0.00%    MPKI:0.00
PC:2d9b0     Total:9      MisBP:0   MisRate:0.00%    MPKI:0.00
PC:2d9ae     Total:7      MisBP:0   MisRate:0.00%    MPKI:0.00
PC:2d9ac     Total:7      MisBP:0   MisRate:0.00%    MPKI:0.00
PC:2d9aa     Total:7      MisBP:0   MisRate:0.00%    MPKI:0.00
PC:2d9a4     Total:6      MisBP:0   MisRate:0.00%    MPKI:0.00
PC:2d9a2     Total:6      MisBP:0   MisRate:0.00%    MPKI:0.00
PC:2d9a0     Total:6      MisBP:0   MisRate:0.00%    MPKI:0.00
PC:2d99e     Total:6      MisBP:0   MisRate:0.00%    MPKI:0.00
PC:2d99c     Total:6      MisBP:0   MisRate:0.00%    MPKI:0.00
PC:2dcf2     Total:1      MisBP:0   MisRate:0.00%    MPKI:0.00
PC:2dcfa     Total:1      MisBP:0   MisRate:0.00%    MPKI:0.00
PC:2ef64     Total:20      MisBP:0   MisRate:0.00%    MPKI:0.00
PC:2ca8e     Total:16      MisBP:0   MisRate:0.00%    MPKI:0.00
PC:2ef62     Total:20      MisBP:0   MisRate:0.00%    MPKI:0.00
PC:147dc     Total:126      MisBP:0   MisRate:0.00%    MPKI:0.00
PC:2ca8c     Total:16      MisBP:0   MisRate:0.00%    MPKI:0.00
PC:2dcf6     Total:1      MisBP:0   MisRate:0.00%    MPKI:0.00
PC:2ef60     Total:20      MisBP:0   MisRate:0.00%    MPKI:0.00
PC:2ca8a     Total:16      MisBP:0   MisRate:0.00%    MPKI:0.00
PC:2dcf4     Total:1      MisBP:0   MisRate:0.00%    MPKI:0.00
PC:2ef5e     Total:20      MisBP:0   MisRate:0.00%    MPKI:0.00
PC:2ca88     Total:16      MisBP:0   MisRate:0.00%    MPKI:0.00
PC:2ca90     Total:16      MisBP:0   MisRate:0.00%    MPKI:0.00
PC:2ef5c     Total:20      MisBP:0   MisRate:0.00%    MPKI:0.00
PC:2ca86     Total:16      MisBP:0   MisRate:0.00%    MPKI:0.00
PC:2ef5a     Total:20      MisBP:0   MisRate:0.00%    MPKI:0.00
PC:2ca84     Total:16      MisBP:0   MisRate:0.00%    MPKI:0.00
PC:2dcee     Total:1      MisBP:0   MisRate:0.00%    MPKI:0.00
PC:2ef58     Total:20      MisBP:0   MisRate:0.00%    MPKI:0.00
PC:2ca80     Total:16      MisBP:0   MisRate:0.00%    MPKI:0.00
PC:2dcea     Total:1      MisBP:0   MisRate:0.00%    MPKI:0.00
PC:2ef54     Total:20      MisBP:0   MisRate:0.00%    MPKI:0.00
PC:2ca7c     Total:18      MisBP:0   MisRate:0.00%    MPKI:0.00
PC:2dce6     Total:1      MisBP:0   MisRate:0.00%    MPKI:0.00
PC:147ea     Total:14      MisBP:0   MisRate:0.00%    MPKI:0.00
PC:2caaa     Total:2      MisBP:0   MisRate:0.00%    MPKI:0.00
PC:2ef7e     Total:14      MisBP:0   MisRate:0.00%    MPKI:0.00
PC:147f8     Total:15      MisBP:0   MisRate:0.00%    MPKI:0.00
PC:2caa8     Total:2      MisBP:0   MisRate:0.00%    MPKI:0.00
PC:2ef7c     Total:14      MisBP:0   MisRate:0.00%    MPKI:0.00
PC:147f6     Total:15      MisBP:0   MisRate:0.00%    MPKI:0.00
PC:2caa6     Total:2      MisBP:0   MisRate:0.00%    MPKI:0.00
PC:147f0     Total:16      MisBP:0   MisRate:0.00%    MPKI:0.00
PC:2ca9e     Total:16      MisBP:0   MisRate:0.00%    MPKI:0.00
PC:2ca9c     Total:16      MisBP:0   MisRate:0.00%    MPKI:0.00
PC:2ef70     Total:15      MisBP:0   MisRate:0.00%    MPKI:0.00
PC:2ef50     Total:20      MisBP:0   MisRate:0.00%    MPKI:0.00
PC:2ca9a     Total:16      MisBP:0   MisRate:0.00%    MPKI:0.00
PC:2ef6e     Total:15      MisBP:0   MisRate:0.00%    MPKI:0.00
PC:147e8     Total:14      MisBP:0   MisRate:0.00%    MPKI:0.00
PC:2ca98     Total:16      MisBP:0   MisRate:0.00%    MPKI:0.00
PC:2ef6c     Total:15      MisBP:0   MisRate:0.00%    MPKI:0.00
PC:2ca96     Total:16      MisBP:0   MisRate:0.00%    MPKI:0.00
PC:2ef6a     Total:15      MisBP:0   MisRate:0.00%    MPKI:0.00
PC:147e4     Total:14      MisBP:0   MisRate:0.00%    MPKI:0.00
PC:2ca92     Total:16      MisBP:0   MisRate:0.00%    MPKI:0.00
PC:2ef66     Total:18      MisBP:0   MisRate:0.00%    MPKI:0.00
PC:147e0     Total:14      MisBP:0   MisRate:0.00%    MPKI:0.00
PC:2ca52     Total:6      MisBP:0   MisRate:0.00%    MPKI:0.00
PC:2ef34     Total:40      MisBP:0   MisRate:0.00%    MPKI:0.00
PC:2ca5c     Total:6      MisBP:0   MisRate:0.00%    MPKI:0.00
PC:2dcc6     Total:6      MisBP:0   MisRate:0.00%    MPKI:0.00
PC:2ef30     Total:40      MisBP:0   MisRate:0.00%    MPKI:0.00
PC:2ca5a     Total:6      MisBP:0   MisRate:0.00%    MPKI:0.00
PC:2dcc4     Total:6      MisBP:0   MisRate:0.00%    MPKI:0.00
PC:2ef2e     Total:40      MisBP:0   MisRate:0.00%    MPKI:0.00
PC:2ca58     Total:6      MisBP:0   MisRate:0.00%    MPKI:0.00
PC:2ef2c     Total:40      MisBP:0   MisRate:0.00%    MPKI:0.00
PC:2ca54     Total:6      MisBP:0   MisRate:0.00%    MPKI:0.00
PC:2ef28     Total:40      MisBP:0   MisRate:0.00%    MPKI:0.00
PC:2dcca     Total:8      MisBP:0   MisRate:0.00%    MPKI:0.00
PC:2dcbc     Total:7      MisBP:0   MisRate:0.00%    MPKI:0.00
PC:2ef26     Total:41      MisBP:0   MisRate:0.00%    MPKI:0.00
PC:2ca50     Total:6      MisBP:0   MisRate:0.00%    MPKI:0.00
PC:2dcba     Total:7      MisBP:0   MisRate:0.00%    MPKI:0.00
PC:2ca4c     Total:6      MisBP:0   MisRate:0.00%    MPKI:0.00
PC:2dcb6     Total:7      MisBP:0   MisRate:0.00%    MPKI:0.00
PC:2ef20     Total:205      MisBP:0   MisRate:0.00%    MPKI:0.00
PC:2ca48     Total:6      MisBP:0   MisRate:0.00%    MPKI:0.00
PC:2ef1c     Total:41      MisBP:0   MisRate:0.00%    MPKI:0.00
PC:2ca42     Total:7      MisBP:0   MisRate:0.00%    MPKI:0.00
PC:2ca40     Total:7      MisBP:0   MisRate:0.00%    MPKI:0.00
PC:2dcda     Total:8      MisBP:0   MisRate:0.00%    MPKI:0.00
PC:2ca7a     Total:18      MisBP:0   MisRate:0.00%    MPKI:0.00
PC:2dce4     Total:1      MisBP:0   MisRate:0.00%    MPKI:0.00
PC:2ca78     Total:18      MisBP:0   MisRate:0.00%    MPKI:0.00
PC:2dce2     Total:1      MisBP:0   MisRate:0.00%    MPKI:0.00
PC:2ef4c     Total:20      MisBP:0   MisRate:0.00%    MPKI:0.00
PC:2ca74     Total:18      MisBP:0   MisRate:0.00%    MPKI:0.00
PC:2dcde     Total:1      MisBP:0   MisRate:0.00%    MPKI:0.00
PC:2ef48     Total:20      MisBP:0   MisRate:0.00%    MPKI:0.00
PC:2ca72     Total:18      MisBP:0   MisRate:0.00%    MPKI:0.00
PC:2dcdc     Total:8      MisBP:0   MisRate:0.00%    MPKI:0.00
PC:2ca70     Total:11      MisBP:0   MisRate:0.00%    MPKI:0.00
PC:2dcec     Total:1      MisBP:0   MisRate:0.00%    MPKI:0.00
PC:2ef44     Total:20      MisBP:0   MisRate:0.00%    MPKI:0.00
PC:2dcd6     Total:8      MisBP:0   MisRate:0.00%    MPKI:0.00
PC:2ef40     Total:20      MisBP:0   MisRate:0.00%    MPKI:0.00
PC:2ca68     Total:6      MisBP:0   MisRate:0.00%    MPKI:0.00
PC:2ef3c     Total:29      MisBP:0   MisRate:0.00%    MPKI:0.00
PC:2ca66     Total:6      MisBP:0   MisRate:0.00%    MPKI:0.00
PC:2dcd0     Total:8      MisBP:0   MisRate:0.00%    MPKI:0.00
PC:2ef3a     Total:29      MisBP:0   MisRate:0.00%    MPKI:0.00
PC:2ca64     Total:6      MisBP:0   MisRate:0.00%    MPKI:0.00
PC:2ef38     Total:30      MisBP:0   MisRate:0.00%    MPKI:0.00
PC:2ca60     Total:6      MisBP:0   MisRate:0.00%    MPKI:0.00
PC:13b9e     Total:2594      MisBP:0   MisRate:0.00%    MPKI:0.00
PC:13bae     Total:69      MisBP:0   MisRate:0.00%    MPKI:0.00
PC:2ca38     Total:8      MisBP:0   MisRate:0.00%    MPKI:0.00
PC:13bac     Total:11      MisBP:0   MisRate:0.00%    MPKI:0.00
PC:2ca36     Total:8      MisBP:0   MisRate:0.00%    MPKI:0.00
PC:13baa     Total:11      MisBP:0   MisRate:0.00%    MPKI:0.00
PC:2ca32     Total:2      MisBP:0   MisRate:0.00%    MPKI:0.00
PC:13ba6     Total:12      MisBP:0   MisRate:0.00%    MPKI:0.00
PC:2ca30     Total:2      MisBP:0   MisRate:0.00%    MPKI:0.00
PC:13ba4     Total:12      MisBP:0   MisRate:0.00%    MPKI:0.00
PC:2ca2e     Total:2      MisBP:0   MisRate:0.00%    MPKI:0.00
PC:2ca2a     Total:2      MisBP:0   MisRate:0.00%    MPKI:0.00
PC:1103a     Total:1      MisBP:0   MisRate:0.00%    MPKI:0.00
PC:2d70c     Total:7      MisBP:0   MisRate:0.00%    MPKI:0.00
PC:2ca26     Total:2      MisBP:0   MisRate:0.00%    MPKI:0.00
PC:11036     Total:2      MisBP:0   MisRate:0.00%    MPKI:0.00
PC:13b9a     Total:1297      MisBP:0   MisRate:0.00%    MPKI:0.00
PC:2ca22     Total:2      MisBP:0   MisRate:0.00%    MPKI:0.00
PC:11032     Total:2      MisBP:0   MisRate:0.00%    MPKI:0.00
PC:13b96     Total:1297      MisBP:0   MisRate:0.00%    MPKI:0.00
PC:2ca1e     Total:2      MisBP:0   MisRate:0.00%    MPKI:0.00
PC:1102e     Total:2      MisBP:0   MisRate:0.00%    MPKI:0.00
PC:13b92     Total:1297      MisBP:0   MisRate:0.00%    MPKI:0.00
PC:2ca1c     Total:2      MisBP:0   MisRate:0.00%    MPKI:0.00
PC:1102c     Total:6      MisBP:0   MisRate:0.00%    MPKI:0.00
PC:2d72e     Total:10      MisBP:0   MisRate:0.00%    MPKI:0.00
PC:2d622     Total:47      MisBP:0   MisRate:0.00%    MPKI:0.00
PC:2d620     Total:47      MisBP:0   MisRate:0.00%    MPKI:0.00
PC:2d61e     Total:49      MisBP:0   MisRate:0.00%    MPKI:0.00
PC:2d61c     Total:49      MisBP:0   MisRate:0.00%    MPKI:0.00
PC:2d61a     Total:1      MisBP:0   MisRate:0.00%    MPKI:0.00
PC:2d616     Total:5      MisBP:0   MisRate:0.00%    MPKI:0.00
PC:2d614     Total:5      MisBP:0   MisRate:0.00%    MPKI:0.00
PC:2d738     Total:10      MisBP:0   MisRate:0.00%    MPKI:0.00
PC:10ade     Total:849      MisBP:0   MisRate:0.00%    MPKI:0.00
PC:2d732     Total:10      MisBP:0   MisRate:0.00%    MPKI:0.00
PC:10ad8     Total:850      MisBP:0   MisRate:0.00%    MPKI:0.00
PC:13b90     Total:1297      MisBP:0   MisRate:0.00%    MPKI:0.00
PC:2d72c     Total:10      MisBP:0   MisRate:0.00%    MPKI:0.00
PC:2d72a     Total:10      MisBP:0   MisRate:0.00%    MPKI:0.00
PC:2d728     Total:10      MisBP:0   MisRate:0.00%    MPKI:0.00
PC:2d722     Total:8      MisBP:0   MisRate:0.00%    MPKI:0.00
PC:2d720     Total:8      MisBP:0   MisRate:0.00%    MPKI:0.00
PC:2d71c     Total:8      MisBP:0   MisRate:0.00%    MPKI:0.00
PC:2d71a     Total:8      MisBP:0   MisRate:0.00%    MPKI:0.00
PC:2d718     Total:8      MisBP:0   MisRate:0.00%    MPKI:0.00
PC:2d714     Total:8      MisBP:0   MisRate:0.00%    MPKI:0.00
PC:2d712     Total:8      MisBP:0   MisRate:0.00%    MPKI:0.00
PC:2d710     Total:7      MisBP:0   MisRate:0.00%    MPKI:0.00
PC:10fe6     Total:5      MisBP:0   MisRate:0.00%    MPKI:0.00
PC:13b58     Total:2128      MisBP:0   MisRate:0.00%    MPKI:0.00
PC:2c9e0     Total:8      MisBP:0   MisRate:0.00%    MPKI:0.00
PC:10ff0     Total:5      MisBP:0   MisRate:0.00%    MPKI:0.00
PC:13b54     Total:2128      MisBP:0   MisRate:0.00%    MPKI:0.00
PC:2c9dc     Total:8      MisBP:0   MisRate:0.00%    MPKI:0.00
PC:10fec     Total:5      MisBP:0   MisRate:0.00%    MPKI:0.00
PC:13b50     Total:2159      MisBP:0   MisRate:0.00%    MPKI:0.00
PC:13b4e     Total:2161      MisBP:0   MisRate:0.00%    MPKI:0.00
PC:2c9d8     Total:8      MisBP:0   MisRate:0.00%    MPKI:0.00
PC:13b4c     Total:2161      MisBP:0   MisRate:0.00%    MPKI:0.00
PC:2c9d6     Total:8      MisBP:0   MisRate:0.00%    MPKI:0.00
PC:10ff4     Total:5      MisBP:0   MisRate:0.00%    MPKI:0.00
PC:2dc40     Total:1      MisBP:0   MisRate:0.00%    MPKI:0.00
PC:13b4a     Total:2163      MisBP:0   MisRate:0.00%    MPKI:0.00
PC:13b48     Total:2163      MisBP:0   MisRate:0.00%    MPKI:0.00
PC:13b44     Total:2163      MisBP:0   MisRate:0.00%    MPKI:0.00
PC:2c9ce     Total:8      MisBP:0   MisRate:0.00%    MPKI:0.00
PC:13b42     Total:2163      MisBP:0   MisRate:0.00%    MPKI:0.00
PC:13b40     Total:2164      MisBP:0   MisRate:0.00%    MPKI:0.00
PC:2c9ca     Total:8      MisBP:0   MisRate:0.00%    MPKI:0.00
PC:13b3e     Total:2336      MisBP:0   MisRate:0.00%    MPKI:0.00
PC:2c9c8     Total:8      MisBP:0   MisRate:0.00%    MPKI:0.00
PC:13b3c     Total:2336      MisBP:0   MisRate:0.00%    MPKI:0.00
PC:2dc78     Total:1      MisBP:0   MisRate:0.00%    MPKI:0.00
PC:2ca18     Total:2      MisBP:0   MisRate:0.00%    MPKI:0.00
PC:11028     Total:6      MisBP:0   MisRate:0.00%    MPKI:0.00
PC:13b8c     Total:1297      MisBP:0   MisRate:0.00%    MPKI:0.00
PC:2ca14     Total:2      MisBP:0   MisRate:0.00%    MPKI:0.00
PC:11024     Total:6      MisBP:0   MisRate:0.00%    MPKI:0.00
PC:13b88     Total:1297      MisBP:0   MisRate:0.00%    MPKI:0.00
PC:2ca10     Total:2      MisBP:0   MisRate:0.00%    MPKI:0.00
PC:11020     Total:6      MisBP:0   MisRate:0.00%    MPKI:0.00
PC:2dc7a     Total:1      MisBP:0   MisRate:0.00%    MPKI:0.00
PC:13b84     Total:1297      MisBP:0   MisRate:0.00%    MPKI:0.00
PC:2ca0e     Total:2      MisBP:0   MisRate:0.00%    MPKI:0.00
PC:2d626     Total:52      MisBP:0   MisRate:0.00%    MPKI:0.00
PC:13b82     Total:6      MisBP:0   MisRate:0.00%    MPKI:0.00
PC:13b80     Total:6      MisBP:0   MisRate:0.00%    MPKI:0.00
PC:2c9ea     Total:3      MisBP:0   MisRate:0.00%    MPKI:0.00
PC:10ffa     Total:9      MisBP:0   MisRate:0.00%    MPKI:0.00
PC:2dc54     Total:1      MisBP:0   MisRate:0.00%    MPKI:0.00
PC:13b5e     Total:2146      MisBP:0   MisRate:0.00%    MPKI:0.00
PC:10ff8     Total:9      MisBP:0   MisRate:0.00%    MPKI:0.00
PC:13b5c     Total:2146      MisBP:0   MisRate:0.00%    MPKI:0.00
PC:2c9e6     Total:8      MisBP:0   MisRate:0.00%    MPKI:0.00
PC:2dc50     Total:1      MisBP:0   MisRate:0.00%    MPKI:0.00
PC:2c9e4     Total:8      MisBP:0   MisRate:0.00%    MPKI:0.00
PC:2d792     Total:1      MisBP:0   MisRate:0.00%    MPKI:0.00
PC:2d8c4     Total:7      MisBP:0   MisRate:0.00%    MPKI:0.00
PC:2c478     Total:20      MisBP:0   MisRate:0.00%    MPKI:0.00
PC:2c474     Total:2      MisBP:0   MisRate:0.00%    MPKI:0.00
PC:2cf42     Total:7      MisBP:0   MisRate:0.00%    MPKI:0.00
PC:13a26     Total:7      MisBP:0   MisRate:0.00%    MPKI:0.00
PC:2d7ec     Total:1      MisBP:0   MisRate:0.00%    MPKI:0.00
PC:2d7e4     Total:1      MisBP:0   MisRate:0.00%    MPKI:0.00
PC:2d7d6     Total:9      MisBP:0   MisRate:0.00%    MPKI:0.00
PC:2d7cc     Total:13      MisBP:0   MisRate:0.00%    MPKI:0.00
PC:2d7c8     Total:13      MisBP:0   MisRate:0.00%    MPKI:0.00
PC:2d796     Total:1      MisBP:0   MisRate:0.00%    MPKI:0.00
PC:10b3c     Total:5      MisBP:0   MisRate:0.00%    MPKI:0.00
PC:2d8ca     Total:7      MisBP:0   MisRate:0.00%    MPKI:0.00
PC:10b38     Total:5      MisBP:0   MisRate:0.00%    MPKI:0.00
PC:2d78e     Total:1      MisBP:0   MisRate:0.00%    MPKI:0.00
PC:10b34     Total:5      MisBP:0   MisRate:0.00%    MPKI:0.00
PC:2d782     Total:3      MisBP:0   MisRate:0.00%    MPKI:0.00
PC:10b28     Total:7      MisBP:0   MisRate:0.00%    MPKI:0.00
PC:2d77a     Total:6      MisBP:0   MisRate:0.00%    MPKI:0.00
PC:10b20     Total:7      MisBP:0   MisRate:0.00%    MPKI:0.00
PC:2d774     Total:6      MisBP:0   MisRate:0.00%    MPKI:0.00
PC:10b1a     Total:7      MisBP:0   MisRate:0.00%    MPKI:0.00
PC:2d76c     Total:6      MisBP:0   MisRate:0.00%    MPKI:0.00
PC:10b12     Total:4      MisBP:0   MisRate:0.00%    MPKI:0.00
PC:2d8f4     Total:7      MisBP:0   MisRate:0.00%    MPKI:0.00
PC:2dce0     Total:1      MisBP:0   MisRate:0.00%    MPKI:0.00
PC:2ef4a     Total:20      MisBP:0   MisRate:0.00%    MPKI:0.00
PC:2dcd4     Total:8      MisBP:0   MisRate:0.00%    MPKI:0.00
PC:2ef3e     Total:29      MisBP:0   MisRate:0.00%    MPKI:0.00
PC:2dcc8     Total:8      MisBP:0   MisRate:0.00%    MPKI:0.00
PC:2dcc0     Total:6      MisBP:0   MisRate:0.00%    MPKI:0.00
PC:2ef2a     Total:40      MisBP:0   MisRate:0.00%    MPKI:0.00
PC:2dcb8     Total:7      MisBP:0   MisRate:0.00%    MPKI:0.00
PC:2ef22     Total:41      MisBP:0   MisRate:0.00%    MPKI:0.00
PC:2d8fc     Total:2      MisBP:0   MisRate:0.00%    MPKI:0.00
PC:2d8fa     Total:2      MisBP:0   MisRate:0.00%    MPKI:0.00
PC:2d766     Total:1      MisBP:0   MisRate:0.00%    MPKI:0.00
PC:2d8f0     Total:1      MisBP:0   MisRate:0.00%    MPKI:0.00
PC:2d8ec     Total:1      MisBP:0   MisRate:0.00%    MPKI:0.00
PC:2d8e6     Total:7      MisBP:0   MisRate:0.00%    MPKI:0.00
PC:2d8e4     Total:7      MisBP:0   MisRate:0.00%    MPKI:0.00
PC:2d8e2     Total:7      MisBP:0   MisRate:0.00%    MPKI:0.00
PC:2d8e0     Total:7      MisBP:0   MisRate:0.00%    MPKI:0.00
PC:2d8de     Total:7      MisBP:0   MisRate:0.00%    MPKI:0.00
PC:2d8da     Total:7      MisBP:0   MisRate:0.00%    MPKI:0.00
PC:2d8d4     Total:7      MisBP:0   MisRate:0.00%    MPKI:0.00
PC:2d8d2     Total:7      MisBP:0   MisRate:0.00%    MPKI:0.00
PC:2d8ce     Total:7      MisBP:0   MisRate:0.00%    MPKI:0.00
PC:2d640     Total:4      MisBP:0   MisRate:0.00%    MPKI:0.00
PC:13894     Total:38723      MisBP:0   MisRate:0.00%    MPKI:0.00
PC:2d65a     Total:1      MisBP:0   MisRate:0.00%    MPKI:0.00
PC:2cdac     Total:7      MisBP:0   MisRate:0.00%    MPKI:0.00
PC:13890     Total:38738      MisBP:0   MisRate:0.00%    MPKI:0.00
PC:2d656     Total:1      MisBP:0   MisRate:0.00%    MPKI:0.00
PC:2d654     Total:1      MisBP:0   MisRate:0.00%    MPKI:0.00
PC:2d650     Total:1      MisBP:0   MisRate:0.00%    MPKI:0.00
PC:2d64c     Total:1      MisBP:0   MisRate:0.00%    MPKI:0.00
PC:2d648     Total:1      MisBP:0   MisRate:0.00%    MPKI:0.00
PC:2d644     Total:1      MisBP:0   MisRate:0.00%    MPKI:0.00
PC:2d642     Total:4      MisBP:0   MisRate:0.00%    MPKI:0.00
PC:2cdb0     Total:7      MisBP:0   MisRate:0.00%    MPKI:0.00
PC:2d63e     Total:5      MisBP:0   MisRate:0.00%    MPKI:0.00
PC:2d63c     Total:5      MisBP:0   MisRate:0.00%    MPKI:0.00
PC:2d63a     Total:5      MisBP:0   MisRate:0.00%    MPKI:0.00
PC:2d638     Total:5      MisBP:0   MisRate:0.00%    MPKI:0.00
PC:2d636     Total:5      MisBP:0   MisRate:0.00%    MPKI:0.00
PC:2d634     Total:6      MisBP:0   MisRate:0.00%    MPKI:0.00
PC:2d632     Total:6      MisBP:0   MisRate:0.00%    MPKI:0.00
PC:2d630     Total:6      MisBP:0   MisRate:0.00%    MPKI:0.00
PC:2d62e     Total:6      MisBP:0   MisRate:0.00%    MPKI:0.00
PC:2d62c     Total:6      MisBP:0   MisRate:0.00%    MPKI:0.00
PC:2d62a     Total:6      MisBP:0   MisRate:0.00%    MPKI:0.00
PC:138a2     Total:25938      MisBP:0   MisRate:0.00%    MPKI:0.00
PC:10b0c     Total:4      MisBP:0   MisRate:0.00%    MPKI:0.00
PC:2d75e     Total:5      MisBP:0   MisRate:0.00%    MPKI:0.00
PC:10b04     Total:5      MisBP:0   MisRate:0.00%    MPKI:0.00
PC:2d748     Total:17      MisBP:0   MisRate:0.00%    MPKI:0.00
PC:10aee     Total:5      MisBP:0   MisRate:0.00%    MPKI:0.00
PC:2d744     Total:9      MisBP:0   MisRate:0.00%    MPKI:0.00
PC:10aea     Total:5      MisBP:0   MisRate:0.00%    MPKI:0.00
PC:2d740     Total:9      MisBP:0   MisRate:0.00%    MPKI:0.00
PC:10ae6     Total:5      MisBP:0   MisRate:0.00%    MPKI:0.00
PC:2d66a     Total:1      MisBP:0   MisRate:0.00%    MPKI:0.00
PC:2cdbe     Total:1      MisBP:0   MisRate:0.00%    MPKI:0.00
PC:2cc3e     Total:6      MisBP:0   MisRate:0.00%    MPKI:0.00
PC:2d668     Total:1      MisBP:0   MisRate:0.00%    MPKI:0.00
PC:2cdba     Total:1      MisBP:0   MisRate:0.00%    MPKI:0.00
PC:1389e     Total:25938      MisBP:0   MisRate:0.00%    MPKI:0.00
PC:2d664     Total:1      MisBP:0   MisRate:0.00%    MPKI:0.00
PC:2cdb8     Total:7      MisBP:0   MisRate:0.00%    MPKI:0.00
PC:1389c     Total:25938      MisBP:0   MisRate:0.00%    MPKI:0.00
PC:2d662     Total:1      MisBP:0   MisRate:0.00%    MPKI:0.00
PC:2d660     Total:1      MisBP:0   MisRate:0.00%    MPKI:0.00
PC:2cdb4     Total:7      MisBP:0   MisRate:0.00%    MPKI:0.00
PC:2d65e     Total:1      MisBP:0   MisRate:0.00%    MPKI:0.00
PC:2d65c     Total:1      MisBP:0   MisRate:0.00%    MPKI:0.00
PC:2cadc     Total:1      MisBP:0   MisRate:0.00%    MPKI:0.00
PC:10ef8     Total:5      MisBP:0   MisRate:0.00%    MPKI:0.00
PC:2c8ec     Total:1      MisBP:0   MisRate:0.00%    MPKI:0.00
PC:2c8ee     Total:1      MisBP:0   MisRate:0.00%    MPKI:0.00
PC:10efe     Total:1      MisBP:0   MisRate:0.00%    MPKI:0.00
PC:2c8f2     Total:1      MisBP:0   MisRate:0.00%    MPKI:0.00
PC:2c8f4     Total:1      MisBP:0   MisRate:0.00%    MPKI:0.00
PC:2c8f6     Total:1      MisBP:0   MisRate:0.00%    MPKI:0.00
PC:2c8fa     Total:1      MisBP:0   MisRate:0.00%    MPKI:0.00
PC:2c8fe     Total:1      MisBP:0   MisRate:0.00%    MPKI:0.00
PC:2cac2     Total:1      MisBP:0   MisRate:0.00%    MPKI:0.00
PC:2cac8     Total:1      MisBP:0   MisRate:0.00%    MPKI:0.00
PC:14816     Total:15      MisBP:0   MisRate:0.00%    MPKI:0.00
PC:2c8e8     Total:1      MisBP:0   MisRate:0.00%    MPKI:0.00
PC:1482a     Total:15      MisBP:0   MisRate:0.00%    MPKI:0.00
PC:2cade     Total:1      MisBP:0   MisRate:0.00%    MPKI:0.00
PC:2cae0     Total:1      MisBP:0   MisRate:0.00%    MPKI:0.00
PC:1482e     Total:15      MisBP:0   MisRate:0.00%    MPKI:0.00
PC:2cae2     Total:1      MisBP:0   MisRate:0.00%    MPKI:0.00
PC:2cae4     Total:1      MisBP:0   MisRate:0.00%    MPKI:0.00
PC:14832     Total:15      MisBP:0   MisRate:0.00%    MPKI:0.00
PC:2cae8     Total:1      MisBP:0   MisRate:0.00%    MPKI:0.00
PC:14836     Total:15      MisBP:0   MisRate:0.00%    MPKI:0.00
PC:2caea     Total:1      MisBP:0   MisRate:0.00%    MPKI:0.00
PC:2caee     Total:1      MisBP:0   MisRate:0.00%    MPKI:0.00
PC:10ee2     Total:6      MisBP:0   MisRate:0.00%    MPKI:0.00
PC:1101c     Total:6      MisBP:0   MisRate:0.00%    MPKI:0.00
PC:2c8c0     Total:1      MisBP:0   MisRate:0.00%    MPKI:0.00
PC:10ed0     Total:3      MisBP:0   MisRate:0.00%    MPKI:0.00
PC:2c8c4     Total:1      MisBP:0   MisRate:0.00%    MPKI:0.00
PC:2c8c6     Total:1      MisBP:0   MisRate:0.00%    MPKI:0.00
PC:10ed6     Total:6      MisBP:0   MisRate:0.00%    MPKI:0.00
PC:2c8ca     Total:1      MisBP:0   MisRate:0.00%    MPKI:0.00
PC:10eda     Total:6      MisBP:0   MisRate:0.00%    MPKI:0.00
PC:2c8ce     Total:1      MisBP:0   MisRate:0.00%    MPKI:0.00
PC:10ede     Total:6      MisBP:0   MisRate:0.00%    MPKI:0.00
PC:2c8d2     Total:1      MisBP:0   MisRate:0.00%    MPKI:0.00
PC:2caf0     Total:1      MisBP:0   MisRate:0.00%    MPKI:0.00
PC:2c8d4     Total:1      MisBP:0   MisRate:0.00%    MPKI:0.00
PC:2c8d8     Total:1      MisBP:0   MisRate:0.00%    MPKI:0.00
PC:2c8da     Total:1      MisBP:0   MisRate:0.00%    MPKI:0.00
PC:10eea     Total:6      MisBP:0   MisRate:0.00%    MPKI:0.00
PC:2c8de     Total:1      MisBP:0   MisRate:0.00%    MPKI:0.00
PC:10eee     Total:6      MisBP:0   MisRate:0.00%    MPKI:0.00
PC:2c8e0     Total:1      MisBP:0   MisRate:0.00%    MPKI:0.00
PC:10ef0     Total:6      MisBP:0   MisRate:0.00%    MPKI:0.00
PC:2c8e4     Total:1      MisBP:0   MisRate:0.00%    MPKI:0.00
PC:10ef4     Total:6      MisBP:0   MisRate:0.00%    MPKI:0.00
PC:2c8e6     Total:1      MisBP:0   MisRate:0.00%    MPKI:0.00
PC:148e2     Total:17      MisBP:0   MisRate:0.00%    MPKI:0.00
PC:10b08     Total:5      MisBP:0   MisRate:0.00%    MPKI:0.00
PC:10b1e     Total:7      MisBP:0   MisRate:0.00%    MPKI:0.00
PC:10b24     Total:7      MisBP:0   MisRate:0.00%    MPKI:0.00
PC:10b2c     Total:7      MisBP:0   MisRate:0.00%    MPKI:0.00
PC:148cc     Total:75      MisBP:0   MisRate:0.00%    MPKI:0.00
PC:148ce     Total:15      MisBP:0   MisRate:0.00%    MPKI:0.00
PC:148d0     Total:15      MisBP:0   MisRate:0.00%    MPKI:0.00
PC:148d2     Total:15      MisBP:0   MisRate:0.00%    MPKI:0.00
PC:148d4     Total:14      MisBP:0   MisRate:0.00%    MPKI:0.00
PC:148d6     Total:14      MisBP:0   MisRate:0.00%    MPKI:0.00
PC:148da     Total:17      MisBP:0   MisRate:0.00%    MPKI:0.00
PC:148de     Total:17      MisBP:0   MisRate:0.00%    MPKI:0.00
PC:10afa     Total:5      MisBP:0   MisRate:0.00%    MPKI:0.00
PC:148e6     Total:17      MisBP:0   MisRate:0.00%    MPKI:0.00
PC:148ea     Total:17      MisBP:0   MisRate:0.00%    MPKI:0.00
PC:148ee     Total:17      MisBP:0   MisRate:0.00%    MPKI:0.00
PC:148f0     Total:68      MisBP:0   MisRate:0.00%    MPKI:0.00
PC:1483a     Total:15      MisBP:0   MisRate:0.00%    MPKI:0.00
PC:14842     Total:15      MisBP:0   MisRate:0.00%    MPKI:0.00
PC:14846     Total:15      MisBP:0   MisRate:0.00%    MPKI:0.00
PC:1484a     Total:15      MisBP:0   MisRate:0.00%    MPKI:0.00
PC:1484e     Total:15      MisBP:0   MisRate:0.00%    MPKI:0.00
PC:14852     Total:15      MisBP:0   MisRate:0.00%    MPKI:0.00
PC:14854     Total:15      MisBP:0   MisRate:0.00%    MPKI:0.00
PC:10b52     Total:1      MisBP:0   MisRate:0.00%    MPKI:0.00
PC:1483e     Total:15      MisBP:0   MisRate:0.00%    MPKI:0.00
PC:2caf2     Total:1      MisBP:0   MisRate:0.00%    MPKI:0.00
PC:2caf6     Total:1      MisBP:0   MisRate:0.00%    MPKI:0.00
PC:14844     Total:15      MisBP:0   MisRate:0.00%    MPKI:0.00
PC:2cafa     Total:1      MisBP:0   MisRate:0.00%    MPKI:0.00
PC:2cdde     Total:3      MisBP:0   MisRate:0.00%    MPKI:0.00
PC:2cde2     Total:3      MisBP:0   MisRate:0.00%    MPKI:0.00
PC:2cde8     Total:3      MisBP:0   MisRate:0.00%    MPKI:0.00
PC:2cdf6     Total:3      MisBP:0   MisRate:0.00%    MPKI:0.00
PC:1103c     Total:1      MisBP:0   MisRate:0.00%    MPKI:0.00
PC:10b4e     Total:1      MisBP:0   MisRate:0.00%    MPKI:0.00
PC:2dc6c     Total:1      MisBP:0   MisRate:0.00%    MPKI:0.00
PC:10b54     Total:1      MisBP:0   MisRate:0.00%    MPKI:0.00
PC:10b56     Total:1      MisBP:0   MisRate:0.00%    MPKI:0.00
PC:10b58     Total:1      MisBP:0   MisRate:0.00%    MPKI:0.00
PC:10b5c     Total:1      MisBP:0   MisRate:0.00%    MPKI:0.00
PC:10b60     Total:1      MisBP:0   MisRate:0.00%    MPKI:0.00
PC:10b64     Total:1      MisBP:0   MisRate:0.00%    MPKI:0.00
PC:10b66     Total:1      MisBP:0   MisRate:0.00%    MPKI:0.00
PC:10b6a     Total:1      MisBP:0   MisRate:0.00%    MPKI:0.00
PC:10b6c     Total:1      MisBP:0   MisRate:0.00%    MPKI:0.00
PC:10ad6     Total:4      MisBP:0   MisRate:0.00%    MPKI:0.00
PC:10ae2     Total:5      MisBP:0   MisRate:0.00%    MPKI:0.00
PC:2d594     Total:17      MisBP:0   MisRate:0.00%    MPKI:0.00
PC:147ee     Total:14      MisBP:0   MisRate:0.00%    MPKI:0.00
PC:2d576     Total:24      MisBP:0   MisRate:0.00%    MPKI:0.00
PC:2d578     Total:23      MisBP:0   MisRate:0.00%    MPKI:0.00
PC:2ef78     Total:15      MisBP:0   MisRate:0.00%    MPKI:0.00
PC:147f2     Total:16      MisBP:0   MisRate:0.00%    MPKI:0.00
PC:2d57a     Total:23      MisBP:0   MisRate:0.00%    MPKI:0.00
PC:2d57e     Total:22      MisBP:0   MisRate:0.00%    MPKI:0.00
PC:2d580     Total:21      MisBP:0   MisRate:0.00%    MPKI:0.00
PC:2ef80     Total:13      MisBP:0   MisRate:0.00%    MPKI:0.00
PC:2d582     Total:21      MisBP:0   MisRate:0.00%    MPKI:0.00
PC:2ef84     Total:12      MisBP:0   MisRate:0.00%    MPKI:0.00
PC:147fe     Total:15      MisBP:0   MisRate:0.00%    MPKI:0.00
PC:2ef74     Total:15      MisBP:0   MisRate:0.00%    MPKI:0.00
PC:2d598     Total:12      MisBP:0   MisRate:0.00%    MPKI:0.00
PC:2ef9a     Total:11      MisBP:0   MisRate:0.00%    MPKI:0.00
PC:2d59c     Total:12      MisBP:0   MisRate:0.00%    MPKI:0.00
PC:2efaa     Total:11      MisBP:0   MisRate:0.00%    MPKI:0.00
PC:14824     Total:15      MisBP:0   MisRate:0.00%    MPKI:0.00
PC:2d5ac     Total:13      MisBP:0   MisRate:0.00%    MPKI:0.00
PC:2d5ea     Total:1      MisBP:0   MisRate:0.00%    MPKI:0.00
PC:2d542     Total:14      MisBP:0   MisRate:0.00%    MPKI:0.00
PC:2d548     Total:14      MisBP:0   MisRate:0.00%    MPKI:0.00
PC:2d54c     Total:14      MisBP:0   MisRate:0.00%    MPKI:0.00
PC:2d550     Total:14      MisBP:0   MisRate:0.00%    MPKI:0.00
PC:2d538     Total:20      MisBP:0   MisRate:0.00%    MPKI:0.00
PC:2cc66     Total:6      MisBP:0   MisRate:0.00%    MPKI:0.00
PC:2d510     Total:11      MisBP:0   MisRate:0.00%    MPKI:0.00
PC:2d516     Total:11      MisBP:0   MisRate:0.00%    MPKI:0.00
PC:33128     Total:1      MisBP:0   MisRate:0.00%    MPKI:0.00
PC:2d51c     Total:11      MisBP:0   MisRate:0.00%    MPKI:0.00
PC:2d520     Total:11      MisBP:0   MisRate:0.00%    MPKI:0.00
PC:33132     Total:1      MisBP:0   MisRate:0.00%    MPKI:0.00
PC:2d524     Total:11      MisBP:0   MisRate:0.00%    MPKI:0.00
PC:33136     Total:1      MisBP:0   MisRate:0.00%    MPKI:0.00
PC:2ef36     Total:40      MisBP:0   MisRate:0.00%    MPKI:0.00
PC:2dccc     Total:8      MisBP:0   MisRate:0.00%    MPKI:0.00
PC:2d552     Total:14      MisBP:0   MisRate:0.00%    MPKI:0.00
PC:138bc     Total:3148960      MisBP:0   MisRate:0.00%    MPKI:0.00
PC:2d55c     Total:24      MisBP:0   MisRate:0.00%    MPKI:0.00
PC:2d55e     Total:24      MisBP:0   MisRate:0.00%    MPKI:0.00
PC:2d564     Total:24      MisBP:0   MisRate:0.00%    MPKI:0.00
PC:2d566     Total:24      MisBP:0   MisRate:0.00%    MPKI:0.00
PC:2d568     Total:24      MisBP:0   MisRate:0.00%    MPKI:0.00
PC:2d56a     Total:24      MisBP:0   MisRate:0.00%    MPKI:0.00
PC:2d56c     Total:24      MisBP:0   MisRate:0.00%    MPKI:0.00
PC:2d570     Total:24      MisBP:0   MisRate:0.00%    MPKI:0.00
PC:2d572     Total:24      MisBP:0   MisRate:0.00%    MPKI:0.00
PC:2d574     Total:24      MisBP:0   MisRate:0.00%    MPKI:0.00
PC:2cab2     Total:2      MisBP:0   MisRate:0.00%    MPKI:0.00
PC:13a42     Total:1932      MisBP:0   MisRate:0.00%    MPKI:0.00
PC:2f432     Total:14      MisBP:0   MisRate:0.00%    MPKI:0.00
PC:13a4a     Total:1932      MisBP:0   MisRate:0.00%    MPKI:0.00
PC:2f43a     Total:14      MisBP:0   MisRate:0.00%    MPKI:0.00
PC:13a50     Total:1932      MisBP:0   MisRate:0.00%    MPKI:0.00
PC:2f440     Total:12      MisBP:0   MisRate:0.00%    MPKI:0.00
PC:13a56     Total:1841      MisBP:0   MisRate:0.00%    MPKI:0.00
PC:13a5e     Total:1841      MisBP:0   MisRate:0.00%    MPKI:0.00
PC:13a60     Total:1841      MisBP:0   MisRate:0.00%    MPKI:0.00
PC:2f450     Total:1      MisBP:0   MisRate:0.00%    MPKI:0.00
PC:13a62     Total:1841      MisBP:0   MisRate:0.00%    MPKI:0.00
PC:13a6c     Total:1784      MisBP:0   MisRate:0.00%    MPKI:0.00
PC:2d422     Total:13      MisBP:0   MisRate:0.00%    MPKI:0.00
PC:2cd3e     Total:15      MisBP:0   MisRate:0.00%    MPKI:0.00
PC:2cd5a     Total:1      MisBP:0   MisRate:0.00%    MPKI:0.00
PC:2cd5e     Total:1      MisBP:0   MisRate:0.00%    MPKI:0.00
PC:2cd68     Total:1      MisBP:0   MisRate:0.00%    MPKI:0.00
PC:2cd6c     Total:1      MisBP:0   MisRate:0.00%    MPKI:0.00
PC:2c986     Total:12      MisBP:0   MisRate:0.00%    MPKI:0.00
PC:2c988     Total:84      MisBP:0   MisRate:0.00%    MPKI:0.00
PC:13c7e     Total:4      MisBP:0   MisRate:0.00%    MPKI:0.00
PC:1100a     Total:6      MisBP:0   MisRate:0.00%    MPKI:0.00
PC:2dc64     Total:1      MisBP:0   MisRate:0.00%    MPKI:0.00
PC:11012     Total:6      MisBP:0   MisRate:0.00%    MPKI:0.00
PC:2d7fe     Total:10      MisBP:0   MisRate:0.00%    MPKI:0.00
PC:2ef52     Total:20      MisBP:0   MisRate:0.00%    MPKI:0.00
PC:2d554     Total:14      MisBP:0   MisRate:0.00%    MPKI:0.00
PC:2d556     Total:13      MisBP:0   MisRate:0.00%    MPKI:0.00
PC:2d558     Total:13      MisBP:0   MisRate:0.00%    MPKI:0.00
PC:13810     Total:8356243      MisBP:0   MisRate:0.00%    MPKI:0.00
PC:2d7f0     Total:11      MisBP:0   MisRate:0.00%    MPKI:0.00
PC:13814     Total:5196776      MisBP:0   MisRate:0.00%    MPKI:0.00
PC:2d7f4     Total:11      MisBP:0   MisRate:0.00%    MPKI:0.00
PC:2d7f8     Total:11      MisBP:0   MisRate:0.00%    MPKI:0.00
PC:1381e     Total:2478564      MisBP:0   MisRate:0.00%    MPKI:0.00
PC:2cd3a     Total:17      MisBP:0   MisRate:0.00%    MPKI:0.00
PC:14858     Total:15      MisBP:0   MisRate:0.00%    MPKI:0.00
PC:2cd4a     Total:15      MisBP:0   MisRate:0.00%    MPKI:0.00
PC:2d80e     Total:1      MisBP:0   MisRate:0.00%    MPKI:0.00
PC:2d488     Total:18      MisBP:0   MisRate:0.00%    MPKI:0.00
PC:2d48c     Total:18      MisBP:0   MisRate:0.00%    MPKI:0.00
PC:2d490     Total:18      MisBP:0   MisRate:0.00%    MPKI:0.00
PC:2d494     Total:1      MisBP:0   MisRate:0.00%    MPKI:0.00
PC:2d496     Total:1      MisBP:0   MisRate:0.00%    MPKI:0.00
PC:2d49a     Total:1      MisBP:0   MisRate:0.00%    MPKI:0.00
PC:2d49c     Total:1      MisBP:0   MisRate:0.00%    MPKI:0.00
PC:2d4a0     Total:1      MisBP:0   MisRate:0.00%    MPKI:0.00
PC:2d4a2     Total:1      MisBP:0   MisRate:0.00%    MPKI:0.00
PC:2d9e4     Total:1      MisBP:0   MisRate:0.00%    MPKI:0.00
PC:2d608     Total:6      MisBP:0   MisRate:0.00%    MPKI:0.00
PC:2d60c     Total:6      MisBP:0   MisRate:0.00%    MPKI:0.00
PC:2d60e     Total:6      MisBP:0   MisRate:0.00%    MPKI:0.00
PC:2d610     Total:6      MisBP:0   MisRate:0.00%    MPKI:0.00
PC:2d612     Total:6      MisBP:0   MisRate:0.00%    MPKI:0.00
PC:330ec     Total:1      MisBP:0   MisRate:0.00%    MPKI:0.00
PC:330f2     Total:1      MisBP:0   MisRate:0.00%    MPKI:0.00
PC:330f8     Total:1      MisBP:0   MisRate:0.00%    MPKI:0.00
PC:33110     Total:2      MisBP:0   MisRate:0.00%    MPKI:0.00
PC:33130     Total:2      MisBP:0   MisRate:0.00%    MPKI:0.00
PC:33134     Total:1      MisBP:0   MisRate:0.00%    MPKI:0.00
PC:3313a     Total:1      MisBP:0   MisRate:0.00%    MPKI:0.00
PC:2d606     Total:6      MisBP:0   MisRate:0.00%    MPKI:0.00
PC:2d9e6     Total:1      MisBP:0   MisRate:0.00%    MPKI:0.00
PC:2d9e8     Total:1      MisBP:0   MisRate:0.00%    MPKI:0.00
PC:2d9ec     Total:1      MisBP:0   MisRate:0.00%    MPKI:0.00
PC:2d9ee     Total:1      MisBP:0   MisRate:0.00%    MPKI:0.00
PC:2d9f0     Total:2      MisBP:0   MisRate:0.00%    MPKI:0.00
PC:2d9f2     Total:2      MisBP:0   MisRate:0.00%    MPKI:0.00
PC:2d9f4     Total:2      MisBP:0   MisRate:0.00%    MPKI:0.00
PC:2d9f6     Total:2      MisBP:0   MisRate:0.00%    MPKI:0.00
PC:2d9fa     Total:2      MisBP:0   MisRate:0.00%    MPKI:0.00
PC:2d9fc     Total:2      MisBP:0   MisRate:0.00%    MPKI:0.00
PC:2d9fe     Total:2      MisBP:0   MisRate:0.00%    MPKI:0.00
PC:13966     Total:9      MisBP:0   MisRate:0.00%    MPKI:0.00
PC:13952     Total:9      MisBP:0   MisRate:0.00%    MPKI:0.00
PC:2e0d8     Total:1      MisBP:0   MisRate:0.00%    MPKI:0.00
PC:13956     Total:9      MisBP:0   MisRate:0.00%    MPKI:0.00
PC:2e0dc     Total:1      MisBP:0   MisRate:0.00%    MPKI:0.00
PC:13958     Total:9      MisBP:0   MisRate:0.00%    MPKI:0.00
PC:2e0de     Total:1      MisBP:0   MisRate:0.00%    MPKI:0.00
PC:1395c     Total:9      MisBP:0   MisRate:0.00%    MPKI:0.00
PC:2e0e2     Total:1      MisBP:0   MisRate:0.00%    MPKI:0.00
PC:13960     Total:9      MisBP:0   MisRate:0.00%    MPKI:0.00
PC:13962     Total:9      MisBP:0   MisRate:0.00%    MPKI:0.00
PC:2e0e8     Total:1      MisBP:0   MisRate:0.00%    MPKI:0.00
PC:2da08     Total:1      MisBP:0   MisRate:0.00%    MPKI:0.00
PC:1396a     Total:9      MisBP:0   MisRate:0.00%    MPKI:0.00
PC:1396c     Total:9      MisBP:0   MisRate:0.00%    MPKI:0.00
PC:1396e     Total:9      MisBP:0   MisRate:0.00%    MPKI:0.00
PC:2d5f2     Total:7      MisBP:0   MisRate:0.00%    MPKI:0.00
PC:2d5f6     Total:6      MisBP:0   MisRate:0.00%    MPKI:0.00
PC:2d5f8     Total:6      MisBP:0   MisRate:0.00%    MPKI:0.00
PC:2d5fa     Total:6      MisBP:0   MisRate:0.00%    MPKI:0.00
PC:2d5fc     Total:6      MisBP:0   MisRate:0.00%    MPKI:0.00
PC:2d5fe     Total:6      MisBP:0   MisRate:0.00%    MPKI:0.00
PC:2d600     Total:6      MisBP:0   MisRate:0.00%    MPKI:0.00
PC:2d602     Total:6      MisBP:0   MisRate:0.00%    MPKI:0.00
PC:2da5a     Total:1      MisBP:0   MisRate:0.00%    MPKI:0.00
PC:2e0da     Total:1      MisBP:0   MisRate:0.00%    MPKI:0.00
PC:2e0e4     Total:1      MisBP:0   MisRate:0.00%    MPKI:0.00
PC:2da3e     Total:1      MisBP:0   MisRate:0.00%    MPKI:0.00
PC:2da42     Total:1      MisBP:0   MisRate:0.00%    MPKI:0.00
PC:2da44     Total:1      MisBP:0   MisRate:0.00%    MPKI:0.00
PC:2da48     Total:1      MisBP:0   MisRate:0.00%    MPKI:0.00
PC:2da4a     Total:1      MisBP:0   MisRate:0.00%    MPKI:0.00
PC:2da4c     Total:1      MisBP:0   MisRate:0.00%    MPKI:0.00
PC:2da50     Total:1      MisBP:0   MisRate:0.00%    MPKI:0.00
PC:2da54     Total:1      MisBP:0   MisRate:0.00%    MPKI:0.00
PC:2da56     Total:1      MisBP:0   MisRate:0.00%    MPKI:0.00
PC:2da58     Total:1      MisBP:0   MisRate:0.00%    MPKI:0.00
PC:2e0d2     Total:1      MisBP:0   MisRate:0.00%    MPKI:0.00
PC:2da5e     Total:1      MisBP:0   MisRate:0.00%    MPKI:0.00
PC:2da60     Total:1      MisBP:0   MisRate:0.00%    MPKI:0.00
PC:2da62     Total:1      MisBP:0   MisRate:0.00%    MPKI:0.00
PC:2da64     Total:1      MisBP:0   MisRate:0.00%    MPKI:0.00
PC:2da68     Total:1      MisBP:0   MisRate:0.00%    MPKI:0.00
PC:2da6a     Total:1      MisBP:0   MisRate:0.00%    MPKI:0.00
PC:2da6e     Total:1      MisBP:0   MisRate:0.00%    MPKI:0.00
PC:2da72     Total:1      MisBP:0   MisRate:0.00%    MPKI:0.00
PC:2da74     Total:1      MisBP:0   MisRate:0.00%    MPKI:0.00
PC:2da78     Total:1      MisBP:0   MisRate:0.00%    MPKI:0.00
PC:2da7a     Total:1      MisBP:0   MisRate:0.00%    MPKI:0.00
PC:2da28     Total:1      MisBP:0   MisRate:0.00%    MPKI:0.00
PC:2da0a     Total:1      MisBP:0   MisRate:0.00%    MPKI:0.00
PC:2da0e     Total:1      MisBP:0   MisRate:0.00%    MPKI:0.00
PC:2da10     Total:1      MisBP:0   MisRate:0.00%    MPKI:0.00
PC:2da12     Total:1      MisBP:0   MisRate:0.00%    MPKI:0.00
PC:2da16     Total:1      MisBP:0   MisRate:0.00%    MPKI:0.00
PC:2da18     Total:1      MisBP:0   MisRate:0.00%    MPKI:0.00
PC:2da1a     Total:1      MisBP:0   MisRate:0.00%    MPKI:0.00
PC:2da1e     Total:1      MisBP:0   MisRate:0.00%    MPKI:0.00
PC:2da20     Total:1      MisBP:0   MisRate:0.00%    MPKI:0.00
PC:2da22     Total:1      MisBP:0   MisRate:0.00%    MPKI:0.00
PC:2da24     Total:1      MisBP:0   MisRate:0.00%    MPKI:0.00
PC:2e0d4     Total:1      MisBP:0   MisRate:0.00%    MPKI:0.00
PC:2da2a     Total:1      MisBP:0   MisRate:0.00%    MPKI:0.00
PC:2da2c     Total:1      MisBP:0   MisRate:0.00%    MPKI:0.00
PC:2da32     Total:1      MisBP:0   MisRate:0.00%    MPKI:0.00
PC:2da36     Total:1      MisBP:0   MisRate:0.00%    MPKI:0.00
PC:2da3a     Total:2      MisBP:0   MisRate:0.00%    MPKI:0.00
PC:2e0aa     Total:1      MisBP:0   MisRate:0.00%    MPKI:0.00
PC:2e0ae     Total:1      MisBP:0   MisRate:0.00%    MPKI:0.00
PC:2e0b2     Total:1      MisBP:0   MisRate:0.00%    MPKI:0.00
PC:2e0ba     Total:1      MisBP:0   MisRate:0.00%    MPKI:0.00
PC:2e0be     Total:1      MisBP:0   MisRate:0.00%    MPKI:0.00
PC:2e0ce     Total:1      MisBP:0   MisRate:0.00%    MPKI:0.00
PC:13c1e     Total:5      MisBP:0   MisRate:0.00%    MPKI:0.00
PC:10fea     Total:5      MisBP:0   MisRate:0.00%    MPKI:0.00
PC:2dc44     Total:1      MisBP:0   MisRate:0.00%    MPKI:0.00
PC:10ff2     Total:5      MisBP:0   MisRate:0.00%    MPKI:0.00
PC:2dc4c     Total:1      MisBP:0   MisRate:0.00%    MPKI:0.00
PC:13c08     Total:35      MisBP:0   MisRate:0.00%    MPKI:0.00
PC:13c0a     Total:5      MisBP:0   MisRate:0.00%    MPKI:0.00
PC:13c0c     Total:7      MisBP:0   MisRate:0.00%    MPKI:0.00
PC:13c0e     Total:5      MisBP:0   MisRate:0.00%    MPKI:0.00
PC:13c10     Total:5      MisBP:0   MisRate:0.00%    MPKI:0.00
PC:13c14     Total:5      MisBP:0   MisRate:0.00%    MPKI:0.00
PC:13c18     Total:5      MisBP:0   MisRate:0.00%    MPKI:0.00
PC:13c1a     Total:5      MisBP:0   MisRate:0.00%    MPKI:0.00
PC:10fe4     Total:5      MisBP:0   MisRate:0.00%    MPKI:0.00
PC:13c22     Total:5      MisBP:0   MisRate:0.00%    MPKI:0.00
PC:13c26     Total:5      MisBP:0   MisRate:0.00%    MPKI:0.00
PC:13c2a     Total:1612      MisBP:0   MisRate:0.00%    MPKI:0.00
PC:13c2e     Total:1612      MisBP:0   MisRate:0.00%    MPKI:0.00
PC:13c32     Total:806      MisBP:0   MisRate:0.00%    MPKI:0.00
PC:13c36     Total:15      MisBP:0   MisRate:0.00%    MPKI:0.00
PC:13c38     Total:15      MisBP:0   MisRate:0.00%    MPKI:0.00
PC:13c3a     Total:15      MisBP:0   MisRate:0.00%    MPKI:0.00
PC:13c3c     Total:15      MisBP:0   MisRate:0.00%    MPKI:0.00
PC:13c3e     Total:15      MisBP:0   MisRate:0.00%    MPKI:0.00
PC:13c40     Total:15      MisBP:0   MisRate:0.00%    MPKI:0.00
PC:14886     Total:14      MisBP:0   MisRate:0.00%    MPKI:0.00
PC:1485c     Total:15      MisBP:0   MisRate:0.00%    MPKI:0.00
PC:14860     Total:15      MisBP:0   MisRate:0.00%    MPKI:0.00
PC:14864     Total:15      MisBP:0   MisRate:0.00%    MPKI:0.00
PC:14868     Total:15      MisBP:0   MisRate:0.00%    MPKI:0.00
PC:1486c     Total:15      MisBP:0   MisRate:0.00%    MPKI:0.00
PC:14870     Total:15      MisBP:0   MisRate:0.00%    MPKI:0.00
PC:14874     Total:15      MisBP:0   MisRate:0.00%    MPKI:0.00
PC:14878     Total:15      MisBP:0   MisRate:0.00%    MPKI:0.00
PC:1487a     Total:15      MisBP:0   MisRate:0.00%    MPKI:0.00
PC:1487e     Total:14      MisBP:0   MisRate:0.00%    MPKI:0.00
PC:14882     Total:14      MisBP:0   MisRate:0.00%    MPKI:0.00
PC:13c42     Total:15      MisBP:0   MisRate:0.00%    MPKI:0.00
PC:14888     Total:88      MisBP:0   MisRate:0.00%    MPKI:0.00
PC:1488c     Total:16      MisBP:0   MisRate:0.00%    MPKI:0.00
PC:14890     Total:16      MisBP:0   MisRate:0.00%    MPKI:0.00
PC:14894     Total:16      MisBP:0   MisRate:0.00%    MPKI:0.00
PC:14898     Total:16      MisBP:0   MisRate:0.00%    MPKI:0.00
PC:1489c     Total:16      MisBP:0   MisRate:0.00%    MPKI:0.00
PC:10eb8     Total:5      MisBP:0   MisRate:0.00%    MPKI:0.00
PC:10ec4     Total:3      MisBP:0   MisRate:0.00%    MPKI:0.00
PC:10ed2     Total:3      MisBP:0   MisRate:0.00%    MPKI:0.00
PC:10ee6     Total:6      MisBP:0   MisRate:0.00%    MPKI:0.00
PC:10efa     Total:5      MisBP:0   MisRate:0.00%    MPKI:0.00
PC:1393e     Total:9      MisBP:0   MisRate:0.00%    MPKI:0.00
PC:13926     Total:6      MisBP:0   MisRate:0.00%    MPKI:0.00
PC:1392a     Total:6      MisBP:0   MisRate:0.00%    MPKI:0.00
PC:2e0b0     Total:1      MisBP:0   MisRate:0.00%    MPKI:0.00
PC:1392e     Total:6      MisBP:0   MisRate:0.00%    MPKI:0.00
PC:2e0b4     Total:1      MisBP:0   MisRate:0.00%    MPKI:0.00
PC:13930     Total:6      MisBP:0   MisRate:0.00%    MPKI:0.00
PC:2e0b6     Total:1      MisBP:0   MisRate:0.00%    MPKI:0.00
PC:13932     Total:6      MisBP:0   MisRate:0.00%    MPKI:0.00
PC:2e0b8     Total:1      MisBP:0   MisRate:0.00%    MPKI:0.00
PC:13936     Total:6      MisBP:0   MisRate:0.00%    MPKI:0.00
PC:1393a     Total:6      MisBP:0   MisRate:0.00%    MPKI:0.00
PC:2e0c0     Total:1      MisBP:0   MisRate:0.00%    MPKI:0.00
PC:2e0a8     Total:1      MisBP:0   MisRate:0.00%    MPKI:0.00
PC:2e0c4     Total:1      MisBP:0   MisRate:0.00%    MPKI:0.00
PC:13940     Total:9      MisBP:0   MisRate:0.00%    MPKI:0.00
PC:2e0c6     Total:1      MisBP:0   MisRate:0.00%    MPKI:0.00
PC:13942     Total:9      MisBP:0   MisRate:0.00%    MPKI:0.00
PC:13944     Total:9      MisBP:0   MisRate:0.00%    MPKI:0.00
PC:2e0ca     Total:1      MisBP:0   MisRate:0.00%    MPKI:0.00
PC:13946     Total:9      MisBP:0   MisRate:0.00%    MPKI:0.00
PC:2e0cc     Total:1      MisBP:0   MisRate:0.00%    MPKI:0.00
PC:1394a     Total:9      MisBP:0   MisRate:0.00%    MPKI:0.00
PC:2e0d0     Total:1      MisBP:0   MisRate:0.00%    MPKI:0.00
PC:1394e     Total:9      MisBP:0   MisRate:0.00%    MPKI:0.00
PC:13908     Total:868      MisBP:0   MisRate:0.00%    MPKI:0.00
PC:13c44     Total:15      MisBP:0   MisRate:0.00%    MPKI:0.00
PC:13c46     Total:15      MisBP:0   MisRate:0.00%    MPKI:0.00
PC:138f0     Total:134      MisBP:0   MisRate:0.00%    MPKI:0.00
PC:138f4     Total:14      MisBP:0   MisRate:0.00%    MPKI:0.00
PC:138f6     Total:14      MisBP:0   MisRate:0.00%    MPKI:0.00
PC:138f8     Total:14      MisBP:0   MisRate:0.00%    MPKI:0.00
PC:138fa     Total:14      MisBP:0   MisRate:0.00%    MPKI:0.00
PC:138fc     Total:14      MisBP:0   MisRate:0.00%    MPKI:0.00
PC:13900     Total:8      MisBP:0   MisRate:0.00%    MPKI:0.00
PC:13902     Total:868      MisBP:0   MisRate:0.00%    MPKI:0.00
PC:13906     Total:868      MisBP:0   MisRate:0.00%    MPKI:0.00
PC:2d53c     Total:20      MisBP:0   MisRate:0.00%    MPKI:0.00
PC:1390c     Total:6      MisBP:0   MisRate:0.00%    MPKI:0.00
PC:1390e     Total:6      MisBP:0   MisRate:0.00%    MPKI:0.00
PC:13912     Total:6      MisBP:0   MisRate:0.00%    MPKI:0.00
PC:13914     Total:6      MisBP:0   MisRate:0.00%    MPKI:0.00
PC:13916     Total:6      MisBP:0   MisRate:0.00%    MPKI:0.00
PC:13918     Total:6      MisBP:0   MisRate:0.00%    MPKI:0.00
PC:1391a     Total:6      MisBP:0   MisRate:0.00%    MPKI:0.00
PC:1391c     Total:6      MisBP:0   MisRate:0.00%    MPKI:0.00
PC:13920     Total:6      MisBP:0   MisRate:0.00%    MPKI:0.00
PC:2e0a6     Total:1      MisBP:0   MisRate:0.00%    MPKI:0.00
PC:13922     Total:6      MisBP:0   MisRate:0.00%    MPKI:0.00
PC:137a8     Total:861457      MisBP:0   MisRate:0.00%    MPKI:0.00
PC:2d780     Total:3      MisBP:0   MisRate:0.00%    MPKI:0.00
PC:137a0     Total:863538      MisBP:0   MisRate:0.00%    MPKI:0.00
PC:2d532     Total:20      MisBP:0   MisRate:0.00%    MPKI:0.00
PC:13c4e     Total:4      MisBP:0   MisRate:0.00%    MPKI:0.00
PC:2d5d4     Total:1      MisBP:0   MisRate:0.00%    MPKI:0.00
PC:137a4     Total:862658      MisBP:0   MisRate:0.00%    MPKI:0.00
PC:2d536     Total:20      MisBP:0   MisRate:0.00%    MPKI:0.00
PC:2d5d8     Total:1      MisBP:0   MisRate:0.00%    MPKI:0.00
PC:137a6     Total:862528      MisBP:0   MisRate:0.00%    MPKI:0.00
PC:2d788     Total:3      MisBP:0   MisRate:0.00%    MPKI:0.00
PC:10b2e     Total:7      MisBP:0   MisRate:0.00%    MPKI:0.00
PC:2d39c     Total:14      MisBP:0   MisRate:0.00%    MPKI:0.00
PC:2d5dc     Total:1      MisBP:0   MisRate:0.00%    MPKI:0.00
PC:2d78a     Total:3      MisBP:0   MisRate:0.00%    MPKI:0.00
PC:137aa     Total:860951      MisBP:0   MisRate:0.00%    MPKI:0.00
PC:2d5de     Total:1      MisBP:0   MisRate:0.00%    MPKI:0.00
PC:137ac     Total:860942      MisBP:0   MisRate:0.00%    MPKI:0.00
PC:2d7a4     Total:1      MisBP:0   MisRate:0.00%    MPKI:0.00
PC:10b4a     Total:2      MisBP:0   MisRate:0.00%    MPKI:0.00
PC:137c4     Total:2896340      MisBP:0   MisRate:0.00%    MPKI:0.00
PC:137c8     Total:2896089      MisBP:0   MisRate:0.00%    MPKI:0.00
PC:137ce     Total:2884210      MisBP:0   MisRate:0.00%    MPKI:0.00
PC:2d52e     Total:1      MisBP:0   MisRate:0.00%    MPKI:0.00
PC:13998     Total:38493      MisBP:0   MisRate:0.00%    MPKI:0.00
PC:136c6     Total:3387335      MisBP:0   MisRate:0.00%    MPKI:0.00
PC:2d776     Total:6      MisBP:0   MisRate:0.00%    MPKI:0.00
PC:13796     Total:864503      MisBP:0   MisRate:0.00%    MPKI:0.00
PC:2d5ca     Total:10      MisBP:0   MisRate:0.00%    MPKI:0.00
PC:13798     Total:864461      MisBP:0   MisRate:0.00%    MPKI:0.00
PC:2d52a     Total:1      MisBP:0   MisRate:0.00%    MPKI:0.00
PC:3313c     Total:1      MisBP:0   MisRate:0.00%    MPKI:0.00
PC:138c4     Total:3169290      MisBP:0   MisRate:0.00%    MPKI:0.00
PC:2d398     Total:154      MisBP:0   MisRate:0.00%    MPKI:0.00
PC:1379c     Total:864458      MisBP:0   MisRate:0.00%    MPKI:0.00
PC:137dc     Total:3750548      MisBP:0   MisRate:0.00%    MPKI:0.00
PC:2c47c     Total:2      MisBP:0   MisRate:0.00%    MPKI:0.00
PC:2d5d0     Total:10      MisBP:0   MisRate:0.00%    MPKI:0.00
PC:136c2     Total:3391145      MisBP:0   MisRate:0.00%    MPKI:0.00
PC:139a0     Total:50      MisBP:0   MisRate:0.00%    MPKI:0.00
PC:1379e     Total:864106      MisBP:0   MisRate:0.00%    MPKI:0.00
PC:2d530     Total:1      MisBP:0   MisRate:0.00%    MPKI:0.00
PC:2d5d2     Total:1      MisBP:0   MisRate:0.00%    MPKI:0.00
PC:139a2     Total:50      MisBP:0   MisRate:0.00%    MPKI:0.00
PC:1384a     Total:752558      MisBP:0   MisRate:0.00%    MPKI:0.00
PC:13c66     Total:6      MisBP:0   MisRate:0.00%    MPKI:0.00
PC:2d7a2     Total:1      MisBP:0   MisRate:0.00%    MPKI:0.00
PC:2cac4     Total:1      MisBP:0   MisRate:0.00%    MPKI:0.00
PC:14812     Total:15      MisBP:0   MisRate:0.00%    MPKI:0.00
PC:13a0c     Total:37      MisBP:0   MisRate:0.00%    MPKI:0.00
PC:2d7ea     Total:1      MisBP:0   MisRate:0.00%    MPKI:0.00
PC:1380a     Total:8372603      MisBP:0   MisRate:0.00%    MPKI:0.00
PC:2c89c     Total:7      MisBP:0   MisRate:0.00%    MPKI:0.00
[...]
PC:2cc72     Total:6      MisBP:0   MisRate:0.00%    MPKI:0.00
PC:2ef88     Total:12      MisBP:0   MisRate:0.00%    MPKI:0.00
PC:14802     Total:15      MisBP:0   MisRate:0.00%    MPKI:0.00
PC:2d58a     Total:17      MisBP:0   MisRate:0.00%    MPKI:0.00
PC:13c5a     Total:38      MisBP:0   MisRate:0.00%    MPKI:0.00
PC:2cf56     Total:1      MisBP:0   MisRate:0.00%    MPKI:0.00
PC:13a3a     Total:2067      MisBP:0   MisRate:0.00%    MPKI:0.00
PC:13820     Total:2477834      MisBP:0   MisRate:0.00%    MPKI:0.00
PC:2cd3c     Total:17      MisBP:0   MisRate:0.00%    MPKI:0.00
PC:13856     Total:1362      MisBP:0   MisRate:0.00%    MPKI:0.00
PC:2cd72     Total:1      MisBP:0   MisRate:0.00%    MPKI:0.00
PC:2d73a     Total:10      MisBP:0   MisRate:0.00%    MPKI:0.00
PC:2cad2     Total:1      MisBP:0   MisRate:0.00%    MPKI:0.00
PC:1375a     Total:2981963      MisBP:0   MisRate:0.00%    MPKI:0.00
PC:2cc76     Total:1      MisBP:0   MisRate:0.00%    MPKI:0.00
PC:2ef8c     Total:12      MisBP:0   MisRate:0.00%    MPKI:0.00
PC:2cab8     Total:2      MisBP:0   MisRate:0.00%    MPKI:0.00
PC:14806     Total:15      MisBP:0   MisRate:0.00%    MPKI:0.00
PC:13756     Total:2999119      MisBP:0   MisRate:0.00%    MPKI:0.00
PC:2cd70     Total:1      MisBP:0   MisRate:0.00%    MPKI:0.00
PC:2d58e     Total:17      MisBP:0   MisRate:0.00%    MPKI:0.00
PC:2d746     Total:17      MisBP:0   MisRate:0.00%    MPKI:0.00
PC:10aec     Total:5      MisBP:0   MisRate:0.00%    MPKI:0.00
PC:10b10     Total:4      MisBP:0   MisRate:0.00%    MPKI:0.00
PC:13984     Total:38560      MisBP:0   MisRate:0.00%    MPKI:0.00
PC:13782     Total:865539      MisBP:0   MisRate:0.00%    MPKI:0.00
PC:13986     Total:38555      MisBP:0   MisRate:0.00%    MPKI:0.00
PC:2d764     Total:1      MisBP:0   MisRate:0.00%    MPKI:0.00
PC:13784     Total:865539      MisBP:0   MisRate:0.00%    MPKI:0.00
PC:2d5b8     Total:13      MisBP:0   MisRate:0.00%    MPKI:0.00
PC:1398a     Total:38551      MisBP:0   MisRate:0.00%    MPKI:0.00
PC:2d768     Total:6      MisBP:0   MisRate:0.00%    MPKI:0.00
PC:13788     Total:865522      MisBP:0   MisRate:0.00%    MPKI:0.00
PC:2d5bc     Total:13      MisBP:0   MisRate:0.00%    MPKI:0.00
PC:2d76a     Total:6      MisBP:0   MisRate:0.00%    MPKI:0.00
PC:2d5b4     Total:13      MisBP:0   MisRate:0.00%    MPKI:0.00
PC:1378a     Total:865510      MisBP:0   MisRate:0.00%    MPKI:0.00
PC:2d76e     Total:6      MisBP:0   MisRate:0.00%    MPKI:0.00
PC:10b14     Total:4      MisBP:0   MisRate:0.00%    MPKI:0.00
PC:1378e     Total:865435      MisBP:0   MisRate:0.00%    MPKI:0.00
PC:13992     Total:38495      MisBP:0   MisRate:0.00%    MPKI:0.00
PC:2d770     Total:6      MisBP:0   MisRate:0.00%    MPKI:0.00
PC:10b16     Total:4      MisBP:0   MisRate:0.00%    MPKI:0.00
PC:13790     Total:865435      MisBP:0   MisRate:0.00%    MPKI:0.00
PC:2d5c4     Total:10      MisBP:0   MisRate:0.00%    MPKI:0.00
PC:13792     Total:865406      MisBP:0   MisRate:0.00%    MPKI:0.00
PC:1397c     Total:38632      MisBP:0   MisRate:0.00%    MPKI:0.00
PC:14820     Total:15      MisBP:0   MisRate:0.00%    MPKI:0.00
PC:2d5a8     Total:12      MisBP:0   MisRate:0.00%    MPKI:0.00
PC:137ca     Total:2888929      MisBP:0   MisRate:0.00%    MPKI:0.00
PC:13978     Total:38625      MisBP:0   MisRate:0.00%    MPKI:0.00
PC:2d756     Total:17      MisBP:0   MisRate:0.00%    MPKI:0.00
PC:10afc     Total:5      MisBP:0   MisRate:0.00%    MPKI:0.00
PC:13776     Total:875254      MisBP:0   MisRate:0.00%    MPKI:0.00
PC:2efa8     Total:11      MisBP:0   MisRate:0.00%    MPKI:0.00
PC:2cad4     Total:1      MisBP:0   MisRate:0.00%    MPKI:0.00
PC:2d5aa     Total:13      MisBP:0   MisRate:0.00%    MPKI:0.00
PC:10eba     Total:5      MisBP:0   MisRate:0.00%    MPKI:0.00
PC:2d75a     Total:5      MisBP:0   MisRate:0.00%    MPKI:0.00
PC:10b00     Total:5      MisBP:0   MisRate:0.00%    MPKI:0.00
PC:1377a     Total:871739      MisBP:0   MisRate:0.00%    MPKI:0.00
PC:1397e     Total:38613      MisBP:0   MisRate:0.00%    MPKI:0.00
PC:1377c     Total:871708      MisBP:0   MisRate:0.00%    MPKI:0.00
PC:2d5b0     Total:13      MisBP:0   MisRate:0.00%    MPKI:0.00
PC:13982     Total:38563      MisBP:0   MisRate:0.00%    MPKI:0.00
PC:2d760     Total:2      MisBP:0   MisRate:0.00%    MPKI:0.00
PC:13780     Total:865756      MisBP:0   MisRate:0.00%    MPKI:0.00
PC:138c8     Total:3169262      MisBP:0   MisRate:0.00%    MPKI:0.00
PC:1383c     Total:791259      MisBP:0   MisRate:0.00%    MPKI:0.00
PC:2d814     Total:1      MisBP:0   MisRate:0.00%    MPKI:0.00
PC:2d3dc     Total:1      MisBP:0   MisRate:0.00%    MPKI:0.00
PC:2d3de     Total:1      MisBP:0   MisRate:0.00%    MPKI:0.00
PC:2cf6e     Total:1      MisBP:0   MisRate:0.00%    MPKI:0.00
PC:136bc     Total:3576796      MisBP:0   MisRate:0.00%    MPKI:0.00
PC:13838     Total:791343      MisBP:0   MisRate:0.00%    MPKI:0.00
PC:2d818     Total:1      MisBP:0   MisRate:0.00%    MPKI:0.00
PC:2d3e0     Total:1      MisBP:0   MisRate:0.00%    MPKI:0.00
PC:13846     Total:753033      MisBP:0   MisRate:0.00%    MPKI:0.00
PC:2d81a     Total:1      MisBP:0   MisRate:0.00%    MPKI:0.00
PC:2d3e2     Total:1      MisBP:0   MisRate:0.00%    MPKI:0.00
PC:2cd50     Total:15      MisBP:0   MisRate:0.00%    MPKI:0.00
PC:2cd58     Total:1      MisBP:0   MisRate:0.00%    MPKI:0.00
PC:2d81c     Total:1      MisBP:0   MisRate:0.00%    MPKI:0.00
PC:2d3e4     Total:2      MisBP:0   MisRate:0.00%    MPKI:0.00
PC:2d81e     Total:1      MisBP:0   MisRate:0.00%    MPKI:0.00
PC:2d3e6     Total:2      MisBP:0   MisRate:0.00%    MPKI:0.00
PC:13840     Total:753199      MisBP:0   MisRate:0.00%    MPKI:0.00
PC:2cd5c     Total:1      MisBP:0   MisRate:0.00%    MPKI:0.00
PC:2d820     Total:1      MisBP:0   MisRate:0.00%    MPKI:0.00
PC:2d3e8     Total:2      MisBP:0   MisRate:0.00%    MPKI:0.00
PC:2d822     Total:1      MisBP:0   MisRate:0.00%    MPKI:0.00
PC:10b46     Total:2      MisBP:0   MisRate:0.00%    MPKI:0.00
PC:13a46     Total:1932      MisBP:0   MisRate:0.00%    MPKI:0.00
PC:2f436     Total:14      MisBP:0   MisRate:0.00%    MPKI:0.00
PC:1382c     Total:3032764      MisBP:0   MisRate:0.00%    MPKI:0.00
PC:2d80c     Total:1      MisBP:0   MisRate:0.00%    MPKI:0.00
PC:13c4c     Total:4      MisBP:0   MisRate:0.00%    MPKI:0.00
PC:13a20     Total:4      MisBP:0   MisRate:0.00%    MPKI:0.00
PC:13830     Total:810091      MisBP:0   MisRate:0.00%    MPKI:0.00
PC:2d810     Total:1      MisBP:0   MisRate:0.00%    MPKI:0.00
PC:2d3d8     Total:1      MisBP:0   MisRate:0.00%    MPKI:0.00
PC:2cf68     Total:1      MisBP:0   MisRate:0.00%    MPKI:0.00
PC:2d3ea     Total:2      MisBP:0   MisRate:0.00%    MPKI:0.00
PC:2f43c     Total:14      MisBP:0   MisRate:0.00%    MPKI:0.00
PC:13832     Total:810090      MisBP:0   MisRate:0.00%    MPKI:0.00
PC:2cd4e     Total:15      MisBP:0   MisRate:0.00%    MPKI:0.00
PC:2d7a0     Total:1      MisBP:0   MisRate:0.00%    MPKI:0.00
PC:2d812     Total:1      MisBP:0   MisRate:0.00%    MPKI:0.00
PC:2d3da     Total:1      MisBP:0   MisRate:0.00%    MPKI:0.00
PC:2cf6a     Total:1      MisBP:0   MisRate:0.00%    MPKI:0.00
PC:13a4e     Total:1932      MisBP:0   MisRate:0.00%    MPKI:0.00
PC:2f43e     Total:13      MisBP:0   MisRate:0.00%    MPKI:0.00
PC:138be     Total:3127611      MisBP:0   MisRate:0.00%    MPKI:0.00
PC:330f0     Total:1      MisBP:0   MisRate:0.00%    MPKI:0.00
PC:2d4d0     Total:10      MisBP:0   MisRate:0.00%    MPKI:0.00
PC:2d4d4     Total:10      MisBP:0   MisRate:0.00%    MPKI:0.00
PC:2d4d6     Total:10      MisBP:0   MisRate:0.00%    MPKI:0.00
PC:330e8     Total:3      MisBP:0   MisRate:0.00%    MPKI:0.00
PC:2d4d8     Total:6      MisBP:0   MisRate:0.00%    MPKI:0.00
PC:330ea     Total:1      MisBP:0   MisRate:0.00%    MPKI:0.00
PC:137be     Total:2972032      MisBP:0   MisRate:0.00%    MPKI:0.00
PC:10b44     Total:2      MisBP:0   MisRate:0.00%    MPKI:0.00
PC:2d4dc     Total:6      MisBP:0   MisRate:0.00%    MPKI:0.00
PC:330ee     Total:1      MisBP:0   MisRate:0.00%    MPKI:0.00
PC:2d4de     Total:6      MisBP:0   MisRate:0.00%    MPKI:0.00
PC:2d4ce     Total:10      MisBP:0   MisRate:0.00%    MPKI:0.00
PC:2d4e2     Total:6      MisBP:0   MisRate:0.00%    MPKI:0.00
PC:2cc40     Total:6      MisBP:0   MisRate:0.00%    MPKI:0.00
PC:2d79e     Total:1      MisBP:0   MisRate:0.00%    MPKI:0.00
PC:2d4ea     Total:6      MisBP:0   MisRate:0.00%    MPKI:0.00
PC:330fc     Total:1      MisBP:0   MisRate:0.00%    MPKI:0.00
PC:2cc4a     Total:6      MisBP:0   MisRate:0.00%    MPKI:0.00
PC:2d4f4     Total:11      MisBP:0   MisRate:0.00%    MPKI:0.00
PC:2d4f8     Total:11      MisBP:0   MisRate:0.00%    MPKI:0.00
PC:2cc52     Total:6      MisBP:0   MisRate:0.00%    MPKI:0.00
PC:2cdd8     Total:3      MisBP:0   MisRate:0.00%    MPKI:0.00
PC:2d4b0     Total:1      MisBP:0   MisRate:0.00%    MPKI:0.00
PC:13844     Total:753040      MisBP:0   MisRate:0.00%    MPKI:0.00
PC:2cd60     Total:1      MisBP:0   MisRate:0.00%    MPKI:0.00
PC:1481a     Total:15      MisBP:0   MisRate:0.00%    MPKI:0.00
PC:2d824     Total:1      MisBP:0   MisRate:0.00%    MPKI:0.00
PC:2efa0     Total:11      MisBP:0   MisRate:0.00%    MPKI:0.00
PC:2d3ee     Total:2      MisBP:0   MisRate:0.00%    MPKI:0.00
PC:2d3f0     Total:2      MisBP:0   MisRate:0.00%    MPKI:0.00
PC:2d4a6     Total:11      MisBP:0   MisRate:0.00%    MPKI:0.00
PC:2d4a8     Total:11      MisBP:0   MisRate:0.00%    MPKI:0.00
PC:2d4ae     Total:1      MisBP:0   MisRate:0.00%    MPKI:0.00
PC:2d3d6     Total:1      MisBP:0   MisRate:0.00%    MPKI:0.00
PC:2d4b4     Total:1      MisBP:0   MisRate:0.00%    MPKI:0.00
PC:2d4b6     Total:1      MisBP:0   MisRate:0.00%    MPKI:0.00
PC:2d4b8     Total:1      MisBP:0   MisRate:0.00%    MPKI:0.00
PC:2d4ba     Total:1      MisBP:0   MisRate:0.00%    MPKI:0.00
PC:2d4bc     Total:11      MisBP:0   MisRate:0.00%    MPKI:0.00
PC:2d4c0     Total:10      MisBP:0   MisRate:0.00%    MPKI:0.00
PC:2d4c2     Total:10      MisBP:0   MisRate:0.00%    MPKI:0.00
PC:2d4c4     Total:10      MisBP:0   MisRate:0.00%    MPKI:0.00
PC:2d4c8     Total:10      MisBP:0   MisRate:0.00%    MPKI:0.00
PC:2d4cc     Total:10      MisBP:0   MisRate:0.00%    MPKI:0.00
PC:2cac0     Total:1      MisBP:0   MisRate:0.00%    MPKI:0.00
PC:2d5c0     Total:10      MisBP:0   MisRate:0.00%    MPKI:0.00
PC:2d5ce     Total:10      MisBP:0   MisRate:0.00%    MPKI:0.00
PC:2d540     Total:14      MisBP:0   MisRate:0.00%    MPKI:0.00
PC:2d5e2     Total:1      MisBP:0   MisRate:0.00%    MPKI:0.00
PC:2ef42     Total:20      MisBP:0   MisRate:0.00%    MPKI:0.00
PC:2d5e6     Total:1      MisBP:0   MisRate:0.00%    MPKI:0.00
PC:2ef90     Total:12      MisBP:0   MisRate:0.00%    MPKI:0.00
PC:2cabc     Total:2      MisBP:0   MisRate:0.00%    MPKI:0.00
PC:1480a     Total:15      MisBP:0   MisRate:0.00%    MPKI:0.00
PC:136be     Total:3391910      MisBP:0   MisRate:0.00%    MPKI:0.00
PC:2ef94     Total:11      MisBP:0   MisRate:0.00%    MPKI:0.00
PC:2cc74     Total:6      MisBP:0   MisRate:0.00%    MPKI:0.00
PC:1480e     Total:15      MisBP:0   MisRate:0.00%    MPKI:0.00
PC:13c5e     Total:38      MisBP:0   MisRate:0.00%    MPKI:0.00
PC:2d394     Total:16      MisBP:0   MisRate:0.00%    MPKI:0.00
PC:13c6c     Total:2      MisBP:0   MisRate:0.00%    MPKI:0.00
PC:2d3a2     Total:14      MisBP:0   MisRate:0.00%    MPKI:0.00
PC:2d3a6     Total:14      MisBP:0   MisRate:0.00%    MPKI:0.00
PC:13c72     Total:2      MisBP:0   MisRate:0.00%    MPKI:0.00
PC:2d3a8     Total:14      MisBP:0   MisRate:0.00%    MPKI:0.00
PC:13c76     Total:2      MisBP:0   MisRate:0.00%    MPKI:0.00
PC:2d3ac     Total:13      MisBP:0   MisRate:0.00%    MPKI:0.00
PC:2d428     Total:91      MisBP:0   MisRate:0.00%    MPKI:0.00
PC:2c8b6     Total:7      MisBP:0   MisRate:0.00%    MPKI:0.00
PC:10ec6     Total:3      MisBP:0   MisRate:0.00%    MPKI:0.00
PC:13a2a     Total:7      MisBP:0   MisRate:0.00%    MPKI:0.00
PC:2cf46     Total:7      MisBP:0   MisRate:0.00%    MPKI:0.00
PC:2d424     Total:13      MisBP:0   MisRate:0.00%    MPKI:0.00
PC:2c8b8     Total:7      MisBP:0   MisRate:0.00%    MPKI:0.00
PC:2d426     Total:13      MisBP:0   MisRate:0.00%    MPKI:0.00
PC:2d4f2     Total:11      MisBP:0   MisRate:0.00%    MPKI:0.00
PC:10eca     Total:3      MisBP:0   MisRate:0.00%    MPKI:0.00
PC:13a2e     Total:7      MisBP:0   MisRate:0.00%    MPKI:0.00
PC:2cf48     Total:7      MisBP:0   MisRate:0.00%    MPKI:0.00
PC:2c8bc     Total:2      MisBP:0   MisRate:0.00%    MPKI:0.00
PC:10ecc     Total:3      MisBP:0   MisRate:0.00%    MPKI:0.00
PC:13a30     Total:7      MisBP:0   MisRate:0.00%    MPKI:0.00
PC:2cc48     Total:6      MisBP:0   MisRate:0.00%    MPKI:0.00
PC:13a32     Total:7      MisBP:0   MisRate:0.00%    MPKI:0.00
PC:2cf4e     Total:1      MisBP:0   MisRate:0.00%    MPKI:0.00
PC:13a34     Total:7      MisBP:0   MisRate:0.00%    MPKI:0.00
PC:13a36     Total:7      MisBP:0   MisRate:0.00%    MPKI:0.00
PC:2cf52     Total:1      MisBP:0   MisRate:0.00%    MPKI:0.00
PC:13a38     Total:7      MisBP:0   MisRate:0.00%    MPKI:0.00
PC:2cd42     Total:15      MisBP:0   MisRate:0.00%    MPKI:0.00
PC:2cd64     Total:1      MisBP:0   MisRate:0.00%    MPKI:0.00
PC:2d3c8     Total:1      MisBP:0   MisRate:0.00%    MPKI:0.00
PC:2cf58     Total:1      MisBP:0   MisRate:0.00%    MPKI:0.00
PC:13a3c     Total:2067      MisBP:0   MisRate:0.00%    MPKI:0.00
PC:2f42c     Total:14      MisBP:0   MisRate:0.00%    MPKI:0.00
PC:13c78     Total:2      MisBP:0   MisRate:0.00%    MPKI:0.00
PC:2d802     Total:10      MisBP:0   MisRate:0.00%    MPKI:0.00
PC:2d3ca     Total:1      MisBP:0   MisRate:0.00%    MPKI:0.00
PC:2d3cc     Total:1      MisBP:0   MisRate:0.00%    MPKI:0.00
PC:13a2c     Total:7      MisBP:0   MisRate:0.00%    MPKI:0.00
PC:13848     Total:753029      MisBP:0   MisRate:0.00%    MPKI:0.00
PC:2d806     Total:10      MisBP:0   MisRate:0.00%    MPKI:0.00
PC:2d3d0     Total:1      MisBP:0   MisRate:0.00%    MPKI:0.00
PC:2cf60     Total:1      MisBP:0   MisRate:0.00%    MPKI:0.00
PC:13a44     Total:1932      MisBP:0   MisRate:0.00%    MPKI:0.00
PC:1382a     Total:3032927      MisBP:0   MisRate:0.00%    MPKI:0.00
PC:2cd46     Total:15      MisBP:0   MisRate:0.00%    MPKI:0.00
PC:2d80a     Total:10      MisBP:0   MisRate:0.00%    MPKI:0.00
PC:2d3d2     Total:1      MisBP:0   MisRate:0.00%    MPKI:0.00
PC:2cf62     Total:1      MisBP:0   MisRate:0.00%    MPKI:0.00
PC:2d3ae     Total:13      MisBP:0   MisRate:0.00%    MPKI:0.00
PC:2d7ee     Total:11      MisBP:0   MisRate:0.00%    MPKI:0.00
PC:2d3b8     Total:13      MisBP:0   MisRate:0.00%    MPKI:0.00
PC:2d3bc     Total:13      MisBP:0   MisRate:0.00%    MPKI:0.00
PC:2d3c0     Total:10      MisBP:0   MisRate:0.00%    MPKI:0.00
PC:1380e     Total:8370266      MisBP:0   MisRate:0.00%    MPKI:0.00
PC:2d3b4     Total:13      MisBP:0   MisRate:0.00%    MPKI:0.00
PC:2d3c2     Total:10      MisBP:0   MisRate:0.00%    MPKI:0.00
PC:1381c     Total:2481389      MisBP:0   MisRate:0.00%    MPKI:0.00
PC:2d7fc     Total:11      MisBP:0   MisRate:0.00%    MPKI:0.00
PC:2d3b2     Total:13      MisBP:0   MisRate:0.00%    MPKI:0.00
PC:13c7c     Total:2      MisBP:0   MisRate:0.00%    MPKI:0.00
PC:2d724     Total:8      MisBP:1   MisRate:12.50%    MPKI:0.00
PC:2c9ba     Total:8      MisBP:1   MisRate:12.50%    MPKI:0.00
PC:10efc     Total:5      MisBP:1   MisRate:20.00%    MPKI:0.00
PC:2f44a     Total:12      MisBP:1   MisRate:8.33%    MPKI:0.00
PC:2d9f8     Total:2      MisBP:1   MisRate:50.00%    MPKI:0.00
PC:2da2e     Total:1      MisBP:1   MisRate:100.00%    MPKI:0.00
PC:2d77c     Total:6      MisBP:1   MisRate:16.67%    MPKI:0.00
PC:2cf4a     Total:7      MisBP:1   MisRate:14.29%    MPKI:0.00
PC:2caa2     Total:16      MisBP:1   MisRate:6.25%    MPKI:0.00
PC:2d9e2     Total:2      MisBP:1   MisRate:50.00%    MPKI:0.00
PC:10b30     Total:7      MisBP:1   MisRate:14.29%    MPKI:0.00
PC:2d8d6     Total:7      MisBP:1   MisRate:14.29%    MPKI:0.00
PC:2d3c6     Total:10      MisBP:1   MisRate:10.00%    MPKI:0.00
PC:2da5c     Total:1      MisBP:1   MisRate:100.00%    MPKI:0.00
PC:2d5be     Total:13      MisBP:1   MisRate:7.69%    MPKI:0.00
PC:2d8e8     Total:7      MisBP:1   MisRate:14.29%    MPKI:0.00
PC:2d618     Total:5      MisBP:1   MisRate:20.00%    MPKI:0.00
PC:2cd54     Total:15      MisBP:1   MisRate:6.67%    MPKI:0.00
PC:2d60a     Total:6      MisBP:1   MisRate:16.67%    MPKI:0.00
PC:2d492     Total:18      MisBP:1   MisRate:5.56%    MPKI:0.00
PC:2d784     Total:3      MisBP:1   MisRate:33.33%    MPKI:0.00
PC:2d4ac     Total:11      MisBP:1   MisRate:9.09%    MPKI:0.00
PC:13c58     Total:60      MisBP:2   MisRate:3.33%    MPKI:0.00
PC:10b3e     Total:4      MisBP:2   MisRate:50.00%    MPKI:0.00
PC:13c4a     Total:41      MisBP:2   MisRate:4.88%    MPKI:0.00
PC:2d8f8     Total:7      MisBP:2   MisRate:28.57%    MPKI:0.00
PC:2d71e     Total:8      MisBP:2   MisRate:25.00%    MPKI:0.00
PC:2c998     Total:6      MisBP:2   MisRate:33.33%    MPKI:0.00
PC:138e0     Total:100669      MisBP:2   MisRate:0.00%    MPKI:0.00
PC:2c8ba     Total:7      MisBP:2   MisRate:28.57%    MPKI:0.00
PC:13ab6     Total:6216      MisBP:2   MisRate:0.03%    MPKI:0.00
PC:2d9a8     Total:6      MisBP:2   MisRate:33.33%    MPKI:0.00
PC:2d758     Total:16      MisBP:2   MisRate:12.50%    MPKI:0.00
PC:2ca6c     Total:6      MisBP:3   MisRate:50.00%    MPKI:0.00
PC:2c9e8     Total:8      MisBP:3   MisRate:37.50%    MPKI:0.00
PC:139a4     Total:440      MisBP:4   MisRate:0.91%    MPKI:0.00
PC:13868     Total:22348530      MisBP:4   MisRate:0.00%    MPKI:0.00
PC:2d628     Total:52      MisBP:4   MisRate:7.69%    MPKI:0.00
PC:2d596     Total:17      MisBP:4   MisRate:23.53%    MPKI:0.00
PC:13b6e     Total:59      MisBP:5   MisRate:8.47%    MPKI:0.00
PC:2cdd4     Total:5      MisBP:5   MisRate:100.00%    MPKI:0.00
PC:10ae0     Total:849      MisBP:5   MisRate:0.59%    MPKI:0.00
PC:2d586     Total:21      MisBP:6   MisRate:28.57%    MPKI:0.00
PC:1390a     Total:868      MisBP:6   MisRate:0.69%    MPKI:0.00
PC:2d7d0     Total:13      MisBP:6   MisRate:46.15%    MPKI:0.00
PC:2ca44     Total:7      MisBP:6   MisRate:85.71%    MPKI:0.00
PC:2d560     Total:24      MisBP:8   MisRate:33.33%    MPKI:0.00
PC:13ba2     Total:1297      MisBP:9   MisRate:0.69%    MPKI:0.00
PC:13c34     Total:806      MisBP:13   MisRate:1.61%    MPKI:0.00
PC:137c0     Total:2900644      MisBP:18   MisRate:0.00%    MPKI:0.00
PC:13b5a     Total:2128      MisBP:21   MisRate:0.99%    MPKI:0.00
PC:13ad2     Total:34619      MisBP:45   MisRate:0.13%    MPKI:0.00
PC:1399e     Total:38461      MisBP:47   MisRate:0.12%    MPKI:0.00
PC:138a8     Total:25772      MisBP:337   MisRate:1.31%    MPKI:0.00
PC:13834     Total:809944      MisBP:415   MisRate:0.05%    MPKI:0.00
PC:13b30     Total:7032      MisBP:437   MisRate:6.21%    MPKI:0.00
PC:13b22     Total:3987      MisBP:510   MisRate:12.79%    MPKI:0.00
PC:1389a     Total:38755      MisBP:562   MisRate:1.45%    MPKI:0.00
PC:13854     Total:752125      MisBP:1287   MisRate:0.17%    MPKI:0.00
PC:13adc     Total:28179      MisBP:1578   MisRate:5.60%    MPKI:0.01
PC:13ad8     Total:32980      MisBP:1900   MisRate:5.76%    MPKI:0.01
PC:13acc     Total:29417      MisBP:3993   MisRate:13.57%    MPKI:0.01
PC:138d2     Total:3167774      MisBP:23213   MisRate:0.73%    MPKI:0.07
PC:1382e     Total:3032692      MisBP:28840   MisRate:0.95%    MPKI:0.09
PC:13826     Total:2405669      MisBP:330411   MisRate:13.73%    MPKI:1.07
PC:1376c     Total:2918556      MisBP:450048   MisRate:15.42%    MPKI:1.45
PC:13808     Total:9182075      MisBP:507033   MisRate:5.52%    MPKI:1.64
PC:13818     Total:5190063      MisBP:718136   MisRate:13.84%    MPKI:2.32
PC:137f2     Total:6972635      MisBP:938480   MisRate:13.46%    MPKI:3.03
PC:13812     Total:8352234      MisBP:1087958   MisRate:13.03%    MPKI:3.51
Totfetch:575525977  TotInsts:310000002  TotMis : inf%   MPKI : 13.21
=============finish sim!!!!!!=============
Done running SimPoint!
