Global frequency set at 1000000000000 ticks per second
 Register [printBranch()] ExitCallback !!!!!!! 
gem5 Simulator System.  https://www.gem5.org
gem5 is copyrighted software; use the --copyright option for details.

gem5 version 22.0.0.2
gem5 compiled Sep  7 2022 00:42:18
gem5 started Sep  7 2022 05:06:57
gem5 executing on a100, pid 2798387
command line: /data/zxf/gem5/gem5-prof/build/ARM/gem5.fast --outdir=/data/zxf/checkpoint/spec2006/401.bzip2/prof/bzip2_ckp_11 /data/zxf/gem5/gem5-prof/configs/example/se.py --cpu-type O3CPU --cpu-clock 1GHz --num-cpu 1 --l1d-hwp-type=BOPPrefetcher --caches --l2cache --l1i_size 32kB --l1d_size 32kB --l2_size 1MB --l1i_assoc 8 --l1d_assoc 8 --l2_assoc 16 --cacheline_size 64 --mem-type DDR3_2133_8x8 --mem-size 16GB --restore-simpoint-checkpoint -r 11 --checkpoint-dir /data/zxf/checkpoint/spec2006/401.bzip2/ckpt -c bzip2_base.gcc41-64bit -o 'input.source 280'

info: Standard input is not a terminal, disabling listeners.
Resuming from /data/zxf/checkpoint/spec2006/401.bzip2/ckpt/cpt.simpoint_10_inst_174590000000_weight_0.134214_interval_300000000_warmup_10000000
Resuming from SimPoint #10, start_inst:174590000000, weight:0.134214, interval:300000000, warmup:10000000
Switch at curTick count:10000
Switched CPUS @ tick 107694594925500
[(<m5.objects.ArmCPU.ArmAtomicSimpleCPU object at 0x7ff658bc8bb0>, <m5.objects.ArmCPU.ArmO3CPU object at 0x7ff658be0e20>)]
switching cpus



+++++++++++++++++++++++++zxf print simpoint+++++++++++++++++++++++++++
Warmed up! Dumping and resetting stats!


=============start sim!!!!!!=============
PC:14c16     Total:24697      MisBP:0   MisRate:0.00%    MPKI:0.00
PC:14c38     Total:23388      MisBP:0   MisRate:0.00%    MPKI:0.00
PC:14c34     Total:24022      MisBP:0   MisRate:0.00%    MPKI:0.00
PC:14c30     Total:24039      MisBP:0   MisRate:0.00%    MPKI:0.00
PC:14c2e     Total:24050      MisBP:0   MisRate:0.00%    MPKI:0.00
PC:14c2c     Total:24054      MisBP:0   MisRate:0.00%    MPKI:0.00
PC:14c2a     Total:24634      MisBP:0   MisRate:0.00%    MPKI:0.00
PC:14c28     Total:24642      MisBP:0   MisRate:0.00%    MPKI:0.00
PC:14c24     Total:24668      MisBP:0   MisRate:0.00%    MPKI:0.00
PC:14c20     Total:24674      MisBP:0   MisRate:0.00%    MPKI:0.00
PC:14c1e     Total:24674      MisBP:0   MisRate:0.00%    MPKI:0.00
PC:14c1a     Total:24687      MisBP:0   MisRate:0.00%    MPKI:0.00
PC:14c3a     Total:23385      MisBP:0   MisRate:0.00%    MPKI:0.00
PC:14c14     Total:24698      MisBP:0   MisRate:0.00%    MPKI:0.00
PC:14c12     Total:25371      MisBP:0   MisRate:0.00%    MPKI:0.00
PC:14c10     Total:25372      MisBP:0   MisRate:0.00%    MPKI:0.00
PC:14c0c     Total:25432      MisBP:0   MisRate:0.00%    MPKI:0.00
PC:14c0a     Total:25432      MisBP:0   MisRate:0.00%    MPKI:0.00
PC:14c08     Total:25433      MisBP:0   MisRate:0.00%    MPKI:0.00
PC:14c06     Total:25433      MisBP:0   MisRate:0.00%    MPKI:0.00
PC:14c02     Total:25433      MisBP:0   MisRate:0.00%    MPKI:0.00
PC:14bfc     Total:26976      MisBP:0   MisRate:0.00%    MPKI:0.00
PC:14bfa     Total:26977      MisBP:0   MisRate:0.00%    MPKI:0.00
PC:14c58     Total:28597      MisBP:0   MisRate:0.00%    MPKI:0.00
PC:14c78     Total:32657      MisBP:0   MisRate:0.00%    MPKI:0.00
PC:14c74     Total:32658      MisBP:0   MisRate:0.00%    MPKI:0.00
PC:14c72     Total:32659      MisBP:0   MisRate:0.00%    MPKI:0.00
PC:14c70     Total:32661      MisBP:0   MisRate:0.00%    MPKI:0.00
PC:14c6c     Total:30748      MisBP:0   MisRate:0.00%    MPKI:0.00
PC:14c6a     Total:30749      MisBP:0   MisRate:0.00%    MPKI:0.00
PC:14c66     Total:30749      MisBP:0   MisRate:0.00%    MPKI:0.00
PC:14c64     Total:30749      MisBP:0   MisRate:0.00%    MPKI:0.00
PC:14c62     Total:30749      MisBP:0   MisRate:0.00%    MPKI:0.00
PC:14c5e     Total:28597      MisBP:0   MisRate:0.00%    MPKI:0.00
PC:14c5c     Total:28597      MisBP:0   MisRate:0.00%    MPKI:0.00
PC:1687c     Total:101      MisBP:0   MisRate:0.00%    MPKI:0.00
PC:14c56     Total:28597      MisBP:0   MisRate:0.00%    MPKI:0.00
PC:14c54     Total:28597      MisBP:0   MisRate:0.00%    MPKI:0.00
PC:14c50     Total:26932      MisBP:0   MisRate:0.00%    MPKI:0.00
PC:14c4e     Total:26932      MisBP:0   MisRate:0.00%    MPKI:0.00
PC:14c4a     Total:26932      MisBP:0   MisRate:0.00%    MPKI:0.00
PC:14c48     Total:26932      MisBP:0   MisRate:0.00%    MPKI:0.00
PC:14c46     Total:26932      MisBP:0   MisRate:0.00%    MPKI:0.00
PC:14c42     Total:22512      MisBP:0   MisRate:0.00%    MPKI:0.00
PC:14c40     Total:22512      MisBP:0   MisRate:0.00%    MPKI:0.00
PC:14c3c     Total:23385      MisBP:0   MisRate:0.00%    MPKI:0.00
PC:19018     Total:18      MisBP:0   MisRate:0.00%    MPKI:0.00
PC:16868     Total:107      MisBP:0   MisRate:0.00%    MPKI:0.00
PC:19022     Total:18      MisBP:0   MisRate:0.00%    MPKI:0.00
PC:140a6     Total:264      MisBP:0   MisRate:0.00%    MPKI:0.00
PC:190e8     Total:3      MisBP:0   MisRate:0.00%    MPKI:0.00
PC:16864     Total:107      MisBP:0   MisRate:0.00%    MPKI:0.00
PC:1901e     Total:18      MisBP:0   MisRate:0.00%    MPKI:0.00
PC:140a2     Total:264      MisBP:0   MisRate:0.00%    MPKI:0.00
PC:190e4     Total:3      MisBP:0   MisRate:0.00%    MPKI:0.00
PC:16860     Total:58      MisBP:0   MisRate:0.00%    MPKI:0.00
PC:1901c     Total:18      MisBP:0   MisRate:0.00%    MPKI:0.00
PC:1685e     Total:58      MisBP:0   MisRate:0.00%    MPKI:0.00
PC:190ec     Total:3      MisBP:0   MisRate:0.00%    MPKI:0.00
PC:1409c     Total:267      MisBP:0   MisRate:0.00%    MPKI:0.00
PC:190de     Total:3      MisBP:0   MisRate:0.00%    MPKI:0.00
PC:1685a     Total:58      MisBP:0   MisRate:0.00%    MPKI:0.00
PC:1409a     Total:267      MisBP:0   MisRate:0.00%    MPKI:0.00
PC:190dc     Total:3      MisBP:0   MisRate:0.00%    MPKI:0.00
PC:16858     Total:58      MisBP:0   MisRate:0.00%    MPKI:0.00
PC:19012     Total:18      MisBP:0   MisRate:0.00%    MPKI:0.00
PC:14096     Total:267      MisBP:0   MisRate:0.00%    MPKI:0.00
PC:190d8     Total:3      MisBP:0   MisRate:0.00%    MPKI:0.00
PC:1900e     Total:18      MisBP:0   MisRate:0.00%    MPKI:0.00
PC:190f4     Total:3      MisBP:0   MisRate:0.00%    MPKI:0.00
PC:19038     Total:17      MisBP:0   MisRate:0.00%    MPKI:0.00
PC:140bc     Total:264      MisBP:0   MisRate:0.00%    MPKI:0.00
PC:190fe     Total:3      MisBP:0   MisRate:0.00%    MPKI:0.00
PC:1687a     Total:102      MisBP:0   MisRate:0.00%    MPKI:0.00
PC:19034     Total:17      MisBP:0   MisRate:0.00%    MPKI:0.00
PC:140b8     Total:264      MisBP:0   MisRate:0.00%    MPKI:0.00
PC:16876     Total:102      MisBP:0   MisRate:0.00%    MPKI:0.00
PC:16872     Total:102      MisBP:0   MisRate:0.00%    MPKI:0.00
PC:1902e     Total:18      MisBP:0   MisRate:0.00%    MPKI:0.00
PC:140b2     Total:264      MisBP:0   MisRate:0.00%    MPKI:0.00
PC:14c7a     Total:32657      MisBP:0   MisRate:0.00%    MPKI:0.00
PC:16870     Total:102      MisBP:0   MisRate:0.00%    MPKI:0.00
PC:1902c     Total:18      MisBP:0   MisRate:0.00%    MPKI:0.00
PC:140b0     Total:264      MisBP:0   MisRate:0.00%    MPKI:0.00
PC:190f2     Total:3      MisBP:0   MisRate:0.00%    MPKI:0.00
PC:1686e     Total:102      MisBP:0   MisRate:0.00%    MPKI:0.00
PC:19028     Total:18      MisBP:0   MisRate:0.00%    MPKI:0.00
PC:140ac     Total:264      MisBP:0   MisRate:0.00%    MPKI:0.00
PC:190ee     Total:3      MisBP:0   MisRate:0.00%    MPKI:0.00
PC:1686a     Total:214      MisBP:0   MisRate:0.00%    MPKI:0.00
PC:140aa     Total:264      MisBP:0   MisRate:0.00%    MPKI:0.00
PC:14d0c     Total:31959      MisBP:0   MisRate:0.00%    MPKI:0.00
PC:1255c     Total:1      MisBP:0   MisRate:0.00%    MPKI:0.00
PC:14d1a     Total:32051      MisBP:0   MisRate:0.00%    MPKI:0.00
PC:1255a     Total:1      MisBP:0   MisRate:0.00%    MPKI:0.00
PC:14d18     Total:32051      MisBP:0   MisRate:0.00%    MPKI:0.00
PC:12556     Total:1      MisBP:0   MisRate:0.00%    MPKI:0.00
PC:14d14     Total:31953      MisBP:0   MisRate:0.00%    MPKI:0.00
PC:12554     Total:1      MisBP:0   MisRate:0.00%    MPKI:0.00
PC:14d12     Total:31953      MisBP:0   MisRate:0.00%    MPKI:0.00
PC:12550     Total:1      MisBP:0   MisRate:0.00%    MPKI:0.00
PC:14d0e     Total:31956      MisBP:0   MisRate:0.00%    MPKI:0.00
PC:1254e     Total:1      MisBP:0   MisRate:0.00%    MPKI:0.00
PC:14d1c     Total:32048      MisBP:0   MisRate:0.00%    MPKI:0.00
PC:14d0a     Total:31964      MisBP:0   MisRate:0.00%    MPKI:0.00
PC:12548     Total:1      MisBP:0   MisRate:0.00%    MPKI:0.00
PC:14d06     Total:31888      MisBP:0   MisRate:0.00%    MPKI:0.00
PC:14d04     Total:31888      MisBP:0   MisRate:0.00%    MPKI:0.00
PC:12542     Total:1      MisBP:0   MisRate:0.00%    MPKI:0.00
PC:14d00     Total:31888      MisBP:0   MisRate:0.00%    MPKI:0.00
PC:12540     Total:671      MisBP:0   MisRate:0.00%    MPKI:0.00
PC:14cfe     Total:33024      MisBP:0   MisRate:0.00%    MPKI:0.00
PC:1253e     Total:683      MisBP:0   MisRate:0.00%    MPKI:0.00
PC:14cfc     Total:33025      MisBP:0   MisRate:0.00%    MPKI:0.00
PC:14d34     Total:32775      MisBP:0   MisRate:0.00%    MPKI:0.00
PC:12586     Total:1      MisBP:0   MisRate:0.00%    MPKI:0.00
PC:14d44     Total:31690      MisBP:0   MisRate:0.00%    MPKI:0.00
PC:12584     Total:1      MisBP:0   MisRate:0.00%    MPKI:0.00
PC:14d42     Total:31694      MisBP:0   MisRate:0.00%    MPKI:0.00
PC:12580     Total:1      MisBP:0   MisRate:0.00%    MPKI:0.00
PC:14d3e     Total:31457      MisBP:0   MisRate:0.00%    MPKI:0.00
PC:1257e     Total:1      MisBP:0   MisRate:0.00%    MPKI:0.00
PC:14d3c     Total:32771      MisBP:0   MisRate:0.00%    MPKI:0.00
PC:14d38     Total:32772      MisBP:0   MisRate:0.00%    MPKI:0.00
PC:12578     Total:1      MisBP:0   MisRate:0.00%    MPKI:0.00
PC:14d36     Total:32774      MisBP:0   MisRate:0.00%    MPKI:0.00
PC:14cf8     Total:33071      MisBP:0   MisRate:0.00%    MPKI:0.00
PC:14d30     Total:32663      MisBP:0   MisRate:0.00%    MPKI:0.00
PC:14d2e     Total:32664      MisBP:0   MisRate:0.00%    MPKI:0.00
PC:14d2a     Total:32667      MisBP:0   MisRate:0.00%    MPKI:0.00
PC:1256a     Total:1      MisBP:0   MisRate:0.00%    MPKI:0.00
PC:14d28     Total:32672      MisBP:0   MisRate:0.00%    MPKI:0.00
PC:14d26     Total:32674      MisBP:0   MisRate:0.00%    MPKI:0.00
PC:12564     Total:1      MisBP:0   MisRate:0.00%    MPKI:0.00
PC:14d22     Total:32047      MisBP:0   MisRate:0.00%    MPKI:0.00
PC:12562     Total:1      MisBP:0   MisRate:0.00%    MPKI:0.00
PC:14d20     Total:32047      MisBP:0   MisRate:0.00%    MPKI:0.00
PC:14c9a     Total:32572      MisBP:0   MisRate:0.00%    MPKI:0.00
PC:14cb8     Total:33240      MisBP:0   MisRate:0.00%    MPKI:0.00
PC:14cb6     Total:33243      MisBP:0   MisRate:0.00%    MPKI:0.00
PC:14cb2     Total:33065      MisBP:0   MisRate:0.00%    MPKI:0.00
PC:14cb0     Total:33075      MisBP:0   MisRate:0.00%    MPKI:0.00
PC:14cac     Total:33075      MisBP:0   MisRate:0.00%    MPKI:0.00
PC:14caa     Total:33076      MisBP:0   MisRate:0.00%    MPKI:0.00
PC:14ca8     Total:33077      MisBP:0   MisRate:0.00%    MPKI:0.00
PC:14ca4     Total:32554      MisBP:0   MisRate:0.00%    MPKI:0.00
PC:14ca2     Total:32554      MisBP:0   MisRate:0.00%    MPKI:0.00
PC:14c9e     Total:32555      MisBP:0   MisRate:0.00%    MPKI:0.00
PC:14c9c     Total:32556      MisBP:0   MisRate:0.00%    MPKI:0.00
PC:14cba     Total:33238      MisBP:0   MisRate:0.00%    MPKI:0.00
PC:14c96     Total:32523      MisBP:0   MisRate:0.00%    MPKI:0.00
PC:14c94     Total:32524      MisBP:0   MisRate:0.00%    MPKI:0.00
PC:14c90     Total:32526      MisBP:0   MisRate:0.00%    MPKI:0.00
PC:14c8e     Total:32527      MisBP:0   MisRate:0.00%    MPKI:0.00
PC:14c8c     Total:32529      MisBP:0   MisRate:0.00%    MPKI:0.00
PC:14c88     Total:32212      MisBP:0   MisRate:0.00%    MPKI:0.00
PC:14c86     Total:32212      MisBP:0   MisRate:0.00%    MPKI:0.00
PC:14c82     Total:32212      MisBP:0   MisRate:0.00%    MPKI:0.00
PC:14c80     Total:32214      MisBP:0   MisRate:0.00%    MPKI:0.00
PC:14c7e     Total:33596      MisBP:0   MisRate:0.00%    MPKI:0.00
PC:14cda     Total:32065      MisBP:0   MisRate:0.00%    MPKI:0.00
PC:14cf6     Total:33072      MisBP:0   MisRate:0.00%    MPKI:0.00
PC:14cf2     Total:33076      MisBP:0   MisRate:0.00%    MPKI:0.00
PC:14cf0     Total:33076      MisBP:0   MisRate:0.00%    MPKI:0.00
PC:14cee     Total:33077      MisBP:0   MisRate:0.00%    MPKI:0.00
PC:14cea     Total:32715      MisBP:0   MisRate:0.00%    MPKI:0.00
PC:14ce8     Total:32715      MisBP:0   MisRate:0.00%    MPKI:0.00
PC:14ce4     Total:32716      MisBP:0   MisRate:0.00%    MPKI:0.00
PC:14ce2     Total:32716      MisBP:0   MisRate:0.00%    MPKI:0.00
PC:14ce0     Total:32716      MisBP:0   MisRate:0.00%    MPKI:0.00
PC:14cdc     Total:32065      MisBP:0   MisRate:0.00%    MPKI:0.00
PC:16850     Total:28847      MisBP:0   MisRate:0.00%    MPKI:0.00
PC:14cd6     Total:32068      MisBP:0   MisRate:0.00%    MPKI:0.00
PC:14cd4     Total:32071      MisBP:0   MisRate:0.00%    MPKI:0.00
PC:14cd2     Total:32072      MisBP:0   MisRate:0.00%    MPKI:0.00
PC:14cce     Total:31736      MisBP:0   MisRate:0.00%    MPKI:0.00
PC:14ccc     Total:31736      MisBP:0   MisRate:0.00%    MPKI:0.00
PC:14cc8     Total:31736      MisBP:0   MisRate:0.00%    MPKI:0.00
PC:14cc6     Total:31736      MisBP:0   MisRate:0.00%    MPKI:0.00
PC:14cc4     Total:31739      MisBP:0   MisRate:0.00%    MPKI:0.00
PC:14cc0     Total:31919      MisBP:0   MisRate:0.00%    MPKI:0.00
PC:14cbe     Total:33237      MisBP:0   MisRate:0.00%    MPKI:0.00
PC:122a2     Total:385986      MisBP:0   MisRate:0.00%    MPKI:0.00
PC:15cf6     Total:29886      MisBP:0   MisRate:0.00%    MPKI:0.00
PC:15cf2     Total:29886      MisBP:0   MisRate:0.00%    MPKI:0.00
PC:15ce6     Total:29844      MisBP:0   MisRate:0.00%    MPKI:0.00
PC:15cde     Total:29932      MisBP:0   MisRate:0.00%    MPKI:0.00
PC:15cd4     Total:29855      MisBP:0   MisRate:0.00%    MPKI:0.00
PC:122ac     Total:385519      MisBP:0   MisRate:0.00%    MPKI:0.00
PC:14a6a     Total:3585562      MisBP:0   MisRate:0.00%    MPKI:0.00
PC:15cce     Total:29857      MisBP:0   MisRate:0.00%    MPKI:0.00
PC:122a6     Total:385790      MisBP:0   MisRate:0.00%    MPKI:0.00
PC:14a64     Total:1805759      MisBP:0   MisRate:0.00%    MPKI:0.00
PC:15cca     Total:29858      MisBP:0   MisRate:0.00%    MPKI:0.00
PC:15cfa     Total:29929      MisBP:0   MisRate:0.00%    MPKI:0.00
PC:14a60     Total:1808311      MisBP:0   MisRate:0.00%    MPKI:0.00
PC:15ca0     Total:29904      MisBP:0   MisRate:0.00%    MPKI:0.00
PC:12278     Total:141699      MisBP:0   MisRate:0.00%    MPKI:0.00
PC:14a36     Total:896665      MisBP:0   MisRate:0.00%    MPKI:0.00
PC:15c98     Total:29904      MisBP:0   MisRate:0.00%    MPKI:0.00
PC:15c90     Total:29973      MisBP:0   MisRate:0.00%    MPKI:0.00
PC:12268     Total:84057      MisBP:0   MisRate:0.00%    MPKI:0.00
PC:14a26     Total:1598238      MisBP:0   MisRate:0.00%    MPKI:0.00
PC:15c8a     Total:29974      MisBP:0   MisRate:0.00%    MPKI:0.00
PC:12262     Total:84108      MisBP:0   MisRate:0.00%    MPKI:0.00
PC:15d54     Total:29879      MisBP:0   MisRate:0.00%    MPKI:0.00
PC:15d6e     Total:30018      MisBP:0   MisRate:0.00%    MPKI:0.00
PC:15d6c     Total:30018      MisBP:0   MisRate:0.00%    MPKI:0.00
PC:36210     Total:17      MisBP:0   MisRate:0.00%    MPKI:0.00
PC:15d6a     Total:30018      MisBP:0   MisRate:0.00%    MPKI:0.00
PC:3620e     Total:17      MisBP:0   MisRate:0.00%    MPKI:0.00
PC:15d68     Total:30018      MisBP:0   MisRate:0.00%    MPKI:0.00
PC:15d60     Total:29926      MisBP:0   MisRate:0.00%    MPKI:0.00
PC:15d5c     Total:29879      MisBP:0   MisRate:0.00%    MPKI:0.00
PC:15d58     Total:29879      MisBP:0   MisRate:0.00%    MPKI:0.00
PC:361fa     Total:128      MisBP:0   MisRate:0.00%    MPKI:0.00
PC:1302c     Total:1      MisBP:0   MisRate:0.00%    MPKI:0.00
PC:14a20     Total:4799300      MisBP:0   MisRate:0.00%    MPKI:0.00
PC:15d4c     Total:29933      MisBP:0   MisRate:0.00%    MPKI:0.00
PC:361e4     Total:205      MisBP:0   MisRate:0.00%    MPKI:0.00
PC:13016     Total:3      MisBP:0   MisRate:0.00%    MPKI:0.00
PC:15d3e     Total:29935      MisBP:0   MisRate:0.00%    MPKI:0.00
PC:361e0     Total:206      MisBP:0   MisRate:0.00%    MPKI:0.00
PC:13012     Total:3      MisBP:0   MisRate:0.00%    MPKI:0.00
PC:15d3a     Total:29891      MisBP:0   MisRate:0.00%    MPKI:0.00
PC:15d2e     Total:29905      MisBP:0   MisRate:0.00%    MPKI:0.00
PC:15d06     Total:29939      MisBP:0   MisRate:0.00%    MPKI:0.00
PC:15cfe     Total:29967      MisBP:0   MisRate:0.00%    MPKI:0.00
PC:15b0a     Total:30055      MisBP:0   MisRate:0.00%    MPKI:0.00
PC:15b5e     Total:30270      MisBP:0   MisRate:0.00%    MPKI:0.00
PC:1339a     Total:1      MisBP:0   MisRate:0.00%    MPKI:0.00
PC:15b58     Total:30207      MisBP:0   MisRate:0.00%    MPKI:0.00
PC:13394     Total:7      MisBP:0   MisRate:0.00%    MPKI:0.00
PC:15b52     Total:30065      MisBP:0   MisRate:0.00%    MPKI:0.00
PC:15b4c     Total:30068      MisBP:0   MisRate:0.00%    MPKI:0.00
PC:15b34     Total:30184      MisBP:0   MisRate:0.00%    MPKI:0.00
PC:15b2e     Total:30193      MisBP:0   MisRate:0.00%    MPKI:0.00
PC:15b16     Total:30087      MisBP:0   MisRate:0.00%    MPKI:0.00
PC:15b12     Total:30075      MisBP:0   MisRate:0.00%    MPKI:0.00
PC:1334c     Total:43      MisBP:0   MisRate:0.00%    MPKI:0.00
PC:133a0     Total:1      MisBP:0   MisRate:0.00%    MPKI:0.00
PC:1334a     Total:43      MisBP:0   MisRate:0.00%    MPKI:0.00
PC:15b08     Total:30055      MisBP:0   MisRate:0.00%    MPKI:0.00
PC:15b06     Total:30055      MisBP:0   MisRate:0.00%    MPKI:0.00
PC:15b04     Total:30055      MisBP:0   MisRate:0.00%    MPKI:0.00
PC:13344     Total:354      MisBP:0   MisRate:0.00%    MPKI:0.00
PC:15b02     Total:29949      MisBP:0   MisRate:0.00%    MPKI:0.00
PC:13342     Total:354      MisBP:0   MisRate:0.00%    MPKI:0.00
PC:15b00     Total:29949      MisBP:0   MisRate:0.00%    MPKI:0.00
PC:13340     Total:354      MisBP:0   MisRate:0.00%    MPKI:0.00
PC:15afe     Total:30043      MisBP:0   MisRate:0.00%    MPKI:0.00
PC:15bf2     Total:30465      MisBP:0   MisRate:0.00%    MPKI:0.00
PC:15c82     Total:30012      MisBP:0   MisRate:0.00%    MPKI:0.00
PC:15c7e     Total:30141      MisBP:0   MisRate:0.00%    MPKI:0.00
PC:15c5c     Total:30335      MisBP:0   MisRate:0.00%    MPKI:0.00
PC:15c3c     Total:30510      MisBP:0   MisRate:0.00%    MPKI:0.00
PC:15c16     Total:30469      MisBP:0   MisRate:0.00%    MPKI:0.00
PC:15c10     Total:30331      MisBP:0   MisRate:0.00%    MPKI:0.00
PC:15c0c     Total:30262      MisBP:0   MisRate:0.00%    MPKI:0.00
PC:15c08     Total:30262      MisBP:0   MisRate:0.00%    MPKI:0.00
PC:15c00     Total:30262      MisBP:0   MisRate:0.00%    MPKI:0.00
PC:15bfa     Total:30470      MisBP:0   MisRate:0.00%    MPKI:0.00
PC:36214     Total:17      MisBP:0   MisRate:0.00%    MPKI:0.00
PC:15bde     Total:30351      MisBP:0   MisRate:0.00%    MPKI:0.00
PC:15bda     Total:30351      MisBP:0   MisRate:0.00%    MPKI:0.00
PC:15bae     Total:30359      MisBP:0   MisRate:0.00%    MPKI:0.00
PC:15b9a     Total:30425      MisBP:0   MisRate:0.00%    MPKI:0.00
PC:15b92     Total:30339      MisBP:0   MisRate:0.00%    MPKI:0.00
PC:15b7e     Total:30287      MisBP:0   MisRate:0.00%    MPKI:0.00
PC:133aa     Total:1      MisBP:0   MisRate:0.00%    MPKI:0.00
PC:15b68     Total:30268      MisBP:0   MisRate:0.00%    MPKI:0.00
PC:133a4     Total:1      MisBP:0   MisRate:0.00%    MPKI:0.00
PC:15b62     Total:30268      MisBP:0   MisRate:0.00%    MPKI:0.00
PC:16810     Total:2      MisBP:0   MisRate:0.00%    MPKI:0.00
PC:18fe2     Total:19      MisBP:0   MisRate:0.00%    MPKI:0.00
PC:16824     Total:3      MisBP:0   MisRate:0.00%    MPKI:0.00
PC:18fde     Total:19      MisBP:0   MisRate:0.00%    MPKI:0.00
PC:16820     Total:3      MisBP:0   MisRate:0.00%    MPKI:0.00
PC:1681c     Total:2      MisBP:0   MisRate:0.00%    MPKI:0.00
PC:18fd8     Total:19      MisBP:0   MisRate:0.00%    MPKI:0.00
PC:1681a     Total:2      MisBP:0   MisRate:0.00%    MPKI:0.00
PC:18fd4     Total:19      MisBP:0   MisRate:0.00%    MPKI:0.00
PC:16816     Total:2      MisBP:0   MisRate:0.00%    MPKI:0.00
PC:18fd2     Total:19      MisBP:0   MisRate:0.00%    MPKI:0.00
PC:16814     Total:2      MisBP:0   MisRate:0.00%    MPKI:0.00
PC:16828     Total:3      MisBP:0   MisRate:0.00%    MPKI:0.00
PC:1680c     Total:2      MisBP:0   MisRate:0.00%    MPKI:0.00
PC:18fc6     Total:19      MisBP:0   MisRate:0.00%    MPKI:0.00
PC:16808     Total:2      MisBP:0   MisRate:0.00%    MPKI:0.00
PC:18fc2     Total:19      MisBP:0   MisRate:0.00%    MPKI:0.00
PC:16804     Total:2      MisBP:0   MisRate:0.00%    MPKI:0.00
PC:18fbe     Total:19      MisBP:0   MisRate:0.00%    MPKI:0.00
PC:16800     Total:3      MisBP:0   MisRate:0.00%    MPKI:0.00
PC:18fba     Total:20      MisBP:0   MisRate:0.00%    MPKI:0.00
PC:167fc     Total:10      MisBP:0   MisRate:0.00%    MPKI:0.00
PC:18fb6     Total:20      MisBP:0   MisRate:0.00%    MPKI:0.00
PC:1683e     Total:30129      MisBP:0   MisRate:0.00%    MPKI:0.00
PC:1684c     Total:28848      MisBP:0   MisRate:0.00%    MPKI:0.00
PC:19008     Total:18      MisBP:0   MisRate:0.00%    MPKI:0.00
PC:1684a     Total:28848      MisBP:0   MisRate:0.00%    MPKI:0.00
PC:19004     Total:18      MisBP:0   MisRate:0.00%    MPKI:0.00
PC:16846     Total:57726      MisBP:0   MisRate:0.00%    MPKI:0.00
PC:16842     Total:28868      MisBP:0   MisRate:0.00%    MPKI:0.00
PC:18ffe     Total:18      MisBP:0   MisRate:0.00%    MPKI:0.00
PC:16840     Total:28870      MisBP:0   MisRate:0.00%    MPKI:0.00
PC:361c4     Total:292      MisBP:0   MisRate:0.00%    MPKI:0.00
PC:12ff6     Total:8      MisBP:0   MisRate:0.00%    MPKI:0.00
PC:18ffc     Total:19      MisBP:0   MisRate:0.00%    MPKI:0.00
PC:167f8     Total:33      MisBP:0   MisRate:0.00%    MPKI:0.00
PC:18ff8     Total:19      MisBP:0   MisRate:0.00%    MPKI:0.00
PC:1683a     Total:30135      MisBP:0   MisRate:0.00%    MPKI:0.00
PC:16838     Total:3      MisBP:0   MisRate:0.00%    MPKI:0.00
PC:18ff2     Total:19      MisBP:0   MisRate:0.00%    MPKI:0.00
PC:16834     Total:3      MisBP:0   MisRate:0.00%    MPKI:0.00
PC:18fee     Total:19      MisBP:0   MisRate:0.00%    MPKI:0.00
PC:16830     Total:3      MisBP:0   MisRate:0.00%    MPKI:0.00
PC:18fec     Total:19      MisBP:0   MisRate:0.00%    MPKI:0.00
PC:1682e     Total:3      MisBP:0   MisRate:0.00%    MPKI:0.00
PC:1682c     Total:3      MisBP:0   MisRate:0.00%    MPKI:0.00
PC:15d86     Total:29954      MisBP:0   MisRate:0.00%    MPKI:0.00
PC:15dba     Total:29985      MisBP:0   MisRate:0.00%    MPKI:0.00
PC:15db6     Total:30009      MisBP:0   MisRate:0.00%    MPKI:0.00
PC:15db4     Total:30009      MisBP:0   MisRate:0.00%    MPKI:0.00
PC:15db2     Total:30006      MisBP:0   MisRate:0.00%    MPKI:0.00
PC:15db0     Total:30006      MisBP:0   MisRate:0.00%    MPKI:0.00
PC:15dac     Total:30008      MisBP:0   MisRate:0.00%    MPKI:0.00
PC:15daa     Total:30034      MisBP:0   MisRate:0.00%    MPKI:0.00
PC:15da0     Total:29917      MisBP:0   MisRate:0.00%    MPKI:0.00
PC:15d9c     Total:29917      MisBP:0   MisRate:0.00%    MPKI:0.00
PC:15d96     Total:29995      MisBP:0   MisRate:0.00%    MPKI:0.00
PC:3622c     Total:20      MisBP:0   MisRate:0.00%    MPKI:0.00
PC:15dbc     Total:29985      MisBP:0   MisRate:0.00%    MPKI:0.00
PC:15d7e     Total:29954      MisBP:0   MisRate:0.00%    MPKI:0.00
PC:36222     Total:16      MisBP:0   MisRate:0.00%    MPKI:0.00
PC:15d7c     Total:30004      MisBP:0   MisRate:0.00%    MPKI:0.00
PC:36220     Total:16      MisBP:0   MisRate:0.00%    MPKI:0.00
PC:15d7a     Total:30044      MisBP:0   MisRate:0.00%    MPKI:0.00
PC:3621c     Total:16      MisBP:0   MisRate:0.00%    MPKI:0.00
PC:15d76     Total:29989      MisBP:0   MisRate:0.00%    MPKI:0.00
PC:3621a     Total:17      MisBP:0   MisRate:0.00%    MPKI:0.00
PC:15d74     Total:30018      MisBP:0   MisRate:0.00%    MPKI:0.00
PC:15d72     Total:30018      MisBP:0   MisRate:0.00%    MPKI:0.00
PC:15dd6     Total:29944      MisBP:0   MisRate:0.00%    MPKI:0.00
PC:167f4     Total:33      MisBP:0   MisRate:0.00%    MPKI:0.00
PC:18fb0     Total:22      MisBP:0   MisRate:0.00%    MPKI:0.00
PC:167f0     Total:4351      MisBP:0   MisRate:0.00%    MPKI:0.00
PC:18faa     Total:22      MisBP:0   MisRate:0.00%    MPKI:0.00
PC:167ec     Total:4849      MisBP:0   MisRate:0.00%    MPKI:0.00
PC:15de4     Total:30070      MisBP:0   MisRate:0.00%    MPKI:0.00
PC:15de2     Total:29990      MisBP:0   MisRate:0.00%    MPKI:0.00
PC:15de0     Total:29990      MisBP:0   MisRate:0.00%    MPKI:0.00
PC:15dde     Total:29944      MisBP:0   MisRate:0.00%    MPKI:0.00
PC:15dda     Total:29944      MisBP:0   MisRate:0.00%    MPKI:0.00
PC:14d46     Total:31688      MisBP:0   MisRate:0.00%    MPKI:0.00
PC:15dd4     Total:29944      MisBP:0   MisRate:0.00%    MPKI:0.00
PC:15dd2     Total:29917      MisBP:0   MisRate:0.00%    MPKI:0.00
PC:15dce     Total:29917      MisBP:0   MisRate:0.00%    MPKI:0.00
PC:15dca     Total:29917      MisBP:0   MisRate:0.00%    MPKI:0.00
PC:15dc8     Total:29917      MisBP:0   MisRate:0.00%    MPKI:0.00
PC:15dc6     Total:29917      MisBP:0   MisRate:0.00%    MPKI:0.00
PC:15dc4     Total:29877      MisBP:0   MisRate:0.00%    MPKI:0.00
PC:15dc2     Total:29877      MisBP:0   MisRate:0.00%    MPKI:0.00
PC:15dc0     Total:29877      MisBP:0   MisRate:0.00%    MPKI:0.00
PC:15dbe     Total:29985      MisBP:0   MisRate:0.00%    MPKI:0.00
PC:1689e     Total:8      MisBP:0   MisRate:0.00%    MPKI:0.00
PC:168b2     Total:2      MisBP:0   MisRate:0.00%    MPKI:0.00
PC:1906c     Total:7      MisBP:0   MisRate:0.00%    MPKI:0.00
PC:168ae     Total:2      MisBP:0   MisRate:0.00%    MPKI:0.00
PC:19068     Total:7      MisBP:0   MisRate:0.00%    MPKI:0.00
PC:168aa     Total:3      MisBP:0   MisRate:0.00%    MPKI:0.00
PC:19064     Total:7      MisBP:0   MisRate:0.00%    MPKI:0.00
PC:168a6     Total:8      MisBP:0   MisRate:0.00%    MPKI:0.00
PC:19062     Total:7      MisBP:0   MisRate:0.00%    MPKI:0.00
PC:168a4     Total:8      MisBP:0   MisRate:0.00%    MPKI:0.00
PC:168a2     Total:8      MisBP:0   MisRate:0.00%    MPKI:0.00
PC:1905c     Total:7      MisBP:0   MisRate:0.00%    MPKI:0.00
PC:168b6     Total:2      MisBP:0   MisRate:0.00%    MPKI:0.00
PC:1689c     Total:8      MisBP:0   MisRate:0.00%    MPKI:0.00
PC:16898     Total:8      MisBP:0   MisRate:0.00%    MPKI:0.00
PC:19054     Total:7      MisBP:0   MisRate:0.00%    MPKI:0.00
PC:19052     Total:7      MisBP:0   MisRate:0.00%    MPKI:0.00
PC:16894     Total:55      MisBP:0   MisRate:0.00%    MPKI:0.00
PC:1904e     Total:7      MisBP:0   MisRate:0.00%    MPKI:0.00
PC:19114     Total:3      MisBP:0   MisRate:0.00%    MPKI:0.00
PC:16890     Total:95      MisBP:0   MisRate:0.00%    MPKI:0.00
PC:1904c     Total:7      MisBP:0   MisRate:0.00%    MPKI:0.00
PC:140d0     Total:361      MisBP:0   MisRate:0.00%    MPKI:0.00
PC:361f8     Total:128      MisBP:0   MisRate:0.00%    MPKI:0.00
PC:14f54     Total:24      MisBP:0   MisRate:0.00%    MPKI:0.00
PC:14f52     Total:8      MisBP:0   MisRate:0.00%    MPKI:0.00
PC:14f50     Total:8      MisBP:0   MisRate:0.00%    MPKI:0.00
PC:14f4e     Total:8      MisBP:0   MisRate:0.00%    MPKI:0.00
PC:14f4a     Total:7      MisBP:0   MisRate:0.00%    MPKI:0.00
PC:14f48     Total:7      MisBP:0   MisRate:0.00%    MPKI:0.00
PC:14f46     Total:7      MisBP:0   MisRate:0.00%    MPKI:0.00
PC:14f42     Total:7      MisBP:0   MisRate:0.00%    MPKI:0.00
PC:14f40     Total:7      MisBP:0   MisRate:0.00%    MPKI:0.00
PC:361fc     Total:127      MisBP:0   MisRate:0.00%    MPKI:0.00
PC:1302e     Total:1      MisBP:0   MisRate:0.00%    MPKI:0.00
PC:19112     Total:3      MisBP:0   MisRate:0.00%    MPKI:0.00
PC:1302a     Total:1      MisBP:0   MisRate:0.00%    MPKI:0.00
PC:361f4     Total:141      MisBP:0   MisRate:0.00%    MPKI:0.00
PC:13026     Total:1      MisBP:0   MisRate:0.00%    MPKI:0.00
PC:361da     Total:206      MisBP:0   MisRate:0.00%    MPKI:0.00
PC:1300c     Total:3      MisBP:0   MisRate:0.00%    MPKI:0.00
PC:361d6     Total:206      MisBP:0   MisRate:0.00%    MPKI:0.00
PC:13008     Total:3      MisBP:0   MisRate:0.00%    MPKI:0.00
PC:19078     Total:5      MisBP:0   MisRate:0.00%    MPKI:0.00
PC:168ba     Total:2      MisBP:0   MisRate:0.00%    MPKI:0.00
PC:19074     Total:5      MisBP:0   MisRate:0.00%    MPKI:0.00
PC:14f1c     Total:21      MisBP:0   MisRate:0.00%    MPKI:0.00
PC:1318c     Total:688      MisBP:0   MisRate:0.00%    MPKI:0.00
PC:13188     Total:688      MisBP:0   MisRate:0.00%    MPKI:0.00
PC:13178     Total:736      MisBP:0   MisRate:0.00%    MPKI:0.00
PC:14f3c     Total:8      MisBP:0   MisRate:0.00%    MPKI:0.00
PC:14f38     Total:8      MisBP:0   MisRate:0.00%    MPKI:0.00
PC:14f34     Total:8      MisBP:0   MisRate:0.00%    MPKI:0.00
PC:14f30     Total:8      MisBP:0   MisRate:0.00%    MPKI:0.00
PC:14f2c     Total:11      MisBP:0   MisRate:0.00%    MPKI:0.00
PC:14f28     Total:11      MisBP:0   MisRate:0.00%    MPKI:0.00
PC:14f24     Total:13      MisBP:0   MisRate:0.00%    MPKI:0.00
PC:14f20     Total:13      MisBP:0   MisRate:0.00%    MPKI:0.00
PC:13190     Total:688      MisBP:0   MisRate:0.00%    MPKI:0.00
PC:14f1a     Total:21      MisBP:0   MisRate:0.00%    MPKI:0.00
PC:14f14     Total:31578      MisBP:0   MisRate:0.00%    MPKI:0.00
PC:14f10     Total:31581      MisBP:0   MisRate:0.00%    MPKI:0.00
PC:14f0e     Total:31582      MisBP:0   MisRate:0.00%    MPKI:0.00
PC:14f0a     Total:31589      MisBP:0   MisRate:0.00%    MPKI:0.00
PC:14f06     Total:31637      MisBP:0   MisRate:0.00%    MPKI:0.00
PC:14f04     Total:31637      MisBP:0   MisRate:0.00%    MPKI:0.00
PC:14f00     Total:31637      MisBP:0   MisRate:0.00%    MPKI:0.00
PC:14efe     Total:32808      MisBP:0   MisRate:0.00%    MPKI:0.00
PC:14efa     Total:32809      MisBP:0   MisRate:0.00%    MPKI:0.00
PC:16882     Total:96      MisBP:0   MisRate:0.00%    MPKI:0.00
PC:1688e     Total:95      MisBP:0   MisRate:0.00%    MPKI:0.00
PC:19048     Total:7      MisBP:0   MisRate:0.00%    MPKI:0.00
PC:140cc     Total:356      MisBP:0   MisRate:0.00%    MPKI:0.00
PC:1910e     Total:3      MisBP:0   MisRate:0.00%    MPKI:0.00
PC:1688a     Total:95      MisBP:0   MisRate:0.00%    MPKI:0.00
PC:16888     Total:96      MisBP:0   MisRate:0.00%    MPKI:0.00
PC:19044     Total:7      MisBP:0   MisRate:0.00%    MPKI:0.00
PC:140c8     Total:356      MisBP:0   MisRate:0.00%    MPKI:0.00
PC:16886     Total:96      MisBP:0   MisRate:0.00%    MPKI:0.00
PC:140c4     Total:266      MisBP:0   MisRate:0.00%    MPKI:0.00
PC:13136     Total:13      MisBP:0   MisRate:0.00%    MPKI:0.00
PC:1903c     Total:17      MisBP:0   MisRate:0.00%    MPKI:0.00
PC:140c0     Total:1      MisBP:0   MisRate:0.00%    MPKI:0.00
PC:19102     Total:3      MisBP:0   MisRate:0.00%    MPKI:0.00
PC:1687e     Total:96      MisBP:0   MisRate:0.00%    MPKI:0.00
PC:29758     Total:316      MisBP:0   MisRate:0.00%    MPKI:0.00
PC:15650     Total:29937      MisBP:0   MisRate:0.00%    MPKI:0.00
PC:131aa     Total:1      MisBP:0   MisRate:0.00%    MPKI:0.00
PC:131a4     Total:1      MisBP:0   MisRate:0.00%    MPKI:0.00
PC:13198     Total:687      MisBP:0   MisRate:0.00%    MPKI:0.00
PC:13194     Total:687      MisBP:0   MisRate:0.00%    MPKI:0.00
PC:14166     Total:472      MisBP:0   MisRate:0.00%    MPKI:0.00
PC:119b4     Total:2157895      MisBP:0   MisRate:0.00%    MPKI:0.00
PC:14172     Total:128      MisBP:0   MisRate:0.00%    MPKI:0.00
PC:191b4     Total:3      MisBP:0   MisRate:0.00%    MPKI:0.00
PC:119b2     Total:2159829      MisBP:0   MisRate:0.00%    MPKI:0.00
PC:14170     Total:129      MisBP:0   MisRate:0.00%    MPKI:0.00
PC:191b2     Total:3      MisBP:0   MisRate:0.00%    MPKI:0.00
PC:119b0     Total:2239612      MisBP:0   MisRate:0.00%    MPKI:0.00
PC:1416e     Total:130      MisBP:0   MisRate:0.00%    MPKI:0.00
PC:119ac     Total:15709432      MisBP:0   MisRate:0.00%    MPKI:0.00
PC:1416a     Total:130      MisBP:0   MisRate:0.00%    MPKI:0.00
PC:191ac     Total:3      MisBP:0   MisRate:0.00%    MPKI:0.00
PC:14174     Total:128      MisBP:0   MisRate:0.00%    MPKI:0.00
PC:191a8     Total:3      MisBP:0   MisRate:0.00%    MPKI:0.00
PC:14164     Total:472      MisBP:0   MisRate:0.00%    MPKI:0.00
PC:191a4     Total:3      MisBP:0   MisRate:0.00%    MPKI:0.00
PC:1415e     Total:473      MisBP:0   MisRate:0.00%    MPKI:0.00
PC:1415c     Total:473      MisBP:0   MisRate:0.00%    MPKI:0.00
PC:1919e     Total:3      MisBP:0   MisRate:0.00%    MPKI:0.00
PC:1340a     Total:440      MisBP:0   MisRate:0.00%    MPKI:0.00
PC:13400     Total:440      MisBP:0   MisRate:0.00%    MPKI:0.00
PC:36242     Total:15      MisBP:0   MisRate:0.00%    MPKI:0.00
PC:2961c     Total:4413      MisBP:0   MisRate:0.00%    MPKI:0.00
PC:161da     Total:29822      MisBP:0   MisRate:0.00%    MPKI:0.00
PC:1621e     Total:29824      MisBP:0   MisRate:0.00%    MPKI:0.00
PC:111d6     Total:83      MisBP:0   MisRate:0.00%    MPKI:0.00
PC:16218     Total:29834      MisBP:0   MisRate:0.00%    MPKI:0.00
PC:111c4     Total:101      MisBP:0   MisRate:0.00%    MPKI:0.00
PC:111aa     Total:126      MisBP:0   MisRate:0.00%    MPKI:0.00
PC:161ec     Total:29860      MisBP:0   MisRate:0.00%    MPKI:0.00
PC:111a2     Total:126      MisBP:0   MisRate:0.00%    MPKI:0.00
PC:161e4     Total:29822      MisBP:0   MisRate:0.00%    MPKI:0.00
PC:1119e     Total:126      MisBP:0   MisRate:0.00%    MPKI:0.00
PC:161e0     Total:29822      MisBP:0   MisRate:0.00%    MPKI:0.00
PC:11198     Total:126      MisBP:0   MisRate:0.00%    MPKI:0.00
PC:15514     Total:7      MisBP:0   MisRate:0.00%    MPKI:0.00
PC:11194     Total:127      MisBP:0   MisRate:0.00%    MPKI:0.00
PC:161d6     Total:29818      MisBP:0   MisRate:0.00%    MPKI:0.00
PC:119be     Total:8698500      MisBP:0   MisRate:0.00%    MPKI:0.00
PC:1417c     Total:74      MisBP:0   MisRate:0.00%    MPKI:0.00
PC:191be     Total:3      MisBP:0   MisRate:0.00%    MPKI:0.00
PC:119ba     Total:1842272      MisBP:0   MisRate:0.00%    MPKI:0.00
PC:14178     Total:128      MisBP:0   MisRate:0.00%    MPKI:0.00
PC:119b8     Total:1843195      MisBP:0   MisRate:0.00%    MPKI:0.00
PC:14176     Total:128      MisBP:0   MisRate:0.00%    MPKI:0.00
PC:191b8     Total:3      MisBP:0   MisRate:0.00%    MPKI:0.00
PC:15328     Total:8      MisBP:0   MisRate:0.00%    MPKI:0.00
PC:15374     Total:2      MisBP:0   MisRate:0.00%    MPKI:0.00
PC:12ece     Total:46      MisBP:0   MisRate:0.00%    MPKI:0.00
PC:29478     Total:55      MisBP:0   MisRate:0.00%    MPKI:0.00
PC:15370     Total:2      MisBP:0   MisRate:0.00%    MPKI:0.00
PC:12eca     Total:46      MisBP:0   MisRate:0.00%    MPKI:0.00
PC:12e98     Total:351965      MisBP:0   MisRate:0.00%    MPKI:0.00
PC:12e94     Total:351965      MisBP:0   MisRate:0.00%    MPKI:0.00
PC:29434     Total:1452      MisBP:0   MisRate:0.00%    MPKI:0.00
PC:1532c     Total:4      MisBP:0   MisRate:0.00%    MPKI:0.00
PC:12e86     Total:351972      MisBP:0   MisRate:0.00%    MPKI:0.00
PC:29430     Total:1452      MisBP:0   MisRate:0.00%    MPKI:0.00
PC:2947c     Total:63      MisBP:0   MisRate:0.00%    MPKI:0.00
PC:12e82     Total:351972      MisBP:0   MisRate:0.00%    MPKI:0.00
PC:12ebc     Total:48      MisBP:0   MisRate:0.00%    MPKI:0.00
PC:1534c     Total:2      MisBP:0   MisRate:0.00%    MPKI:0.00
PC:12ea6     Total:116      MisBP:0   MisRate:0.00%    MPKI:0.00
PC:12e70     Total:352053      MisBP:0   MisRate:0.00%    MPKI:0.00
PC:2940c     Total:1475      MisBP:0   MisRate:0.00%    MPKI:0.00
PC:15304     Total:936      MisBP:0   MisRate:0.00%    MPKI:0.00
PC:12e5e     Total:85      MisBP:0   MisRate:0.00%    MPKI:0.00
PC:296e4     Total:320      MisBP:0   MisRate:0.00%    MPKI:0.00
PC:155dc     Total:29605      MisBP:0   MisRate:0.00%    MPKI:0.00
PC:153b8     Total:35      MisBP:0   MisRate:0.00%    MPKI:0.00
PC:1306e     Total:436      MisBP:0   MisRate:0.00%    MPKI:0.00
PC:3623c     Total:17      MisBP:0   MisRate:0.00%    MPKI:0.00
PC:294e8     Total:351      MisBP:0   MisRate:0.00%    MPKI:0.00
PC:153e0     Total:12      MisBP:0   MisRate:0.00%    MPKI:0.00
PC:12f3a     Total:18      MisBP:0   MisRate:0.00%    MPKI:0.00
PC:294e4     Total:351      MisBP:0   MisRate:0.00%    MPKI:0.00
PC:12f36     Total:18      MisBP:0   MisRate:0.00%    MPKI:0.00
PC:12f28     Total:1      MisBP:0   MisRate:0.00%    MPKI:0.00
PC:12f24     Total:1      MisBP:0   MisRate:0.00%    MPKI:0.00
PC:294c0     Total:368      MisBP:0   MisRate:0.00%    MPKI:0.00
PC:12738     Total:1      MisBP:0   MisRate:0.00%    MPKI:0.00
PC:12f12     Total:18      MisBP:0   MisRate:0.00%    MPKI:0.00
PC:12f00     Total:18      MisBP:0   MisRate:0.00%    MPKI:0.00
PC:294a0     Total:45      MisBP:0   MisRate:0.00%    MPKI:0.00
PC:15398     Total:1      MisBP:0   MisRate:0.00%    MPKI:0.00
PC:12ef2     Total:46      MisBP:0   MisRate:0.00%    MPKI:0.00
PC:2949c     Total:50      MisBP:0   MisRate:0.00%    MPKI:0.00
PC:15394     Total:1      MisBP:0   MisRate:0.00%    MPKI:0.00
PC:12eee     Total:46      MisBP:0   MisRate:0.00%    MPKI:0.00
PC:12ee0     Total:77      MisBP:0   MisRate:0.00%    MPKI:0.00
PC:12edc     Total:77      MisBP:0   MisRate:0.00%    MPKI:0.00
PC:125e2     Total:2      MisBP:0   MisRate:0.00%    MPKI:0.00
PC:14dc0     Total:32613      MisBP:0   MisRate:0.00%    MPKI:0.00
PC:14dbc     Total:32837      MisBP:0   MisRate:0.00%    MPKI:0.00
PC:14dba     Total:32837      MisBP:0   MisRate:0.00%    MPKI:0.00
PC:14db6     Total:32840      MisBP:0   MisRate:0.00%    MPKI:0.00
PC:14db4     Total:32842      MisBP:0   MisRate:0.00%    MPKI:0.00
PC:14db2     Total:32845      MisBP:0   MisRate:0.00%    MPKI:0.00
PC:14dae     Total:32785      MisBP:0   MisRate:0.00%    MPKI:0.00
PC:14dac     Total:32785      MisBP:0   MisRate:0.00%    MPKI:0.00
PC:14da8     Total:32786      MisBP:0   MisRate:0.00%    MPKI:0.00
PC:14da6     Total:32787      MisBP:0   MisRate:0.00%    MPKI:0.00
PC:14da4     Total:32787      MisBP:0   MisRate:0.00%    MPKI:0.00
PC:14dc2     Total:32612      MisBP:0   MisRate:0.00%    MPKI:0.00
PC:14da0     Total:32300      MisBP:0   MisRate:0.00%    MPKI:0.00
PC:125e0     Total:2      MisBP:0   MisRate:0.00%    MPKI:0.00
PC:14d9e     Total:32300      MisBP:0   MisRate:0.00%    MPKI:0.00
PC:125dc     Total:2      MisBP:0   MisRate:0.00%    MPKI:0.00
PC:14d9a     Total:32305      MisBP:0   MisRate:0.00%    MPKI:0.00
PC:125da     Total:2      MisBP:0   MisRate:0.00%    MPKI:0.00
PC:14d98     Total:32308      MisBP:0   MisRate:0.00%    MPKI:0.00
PC:14d96     Total:32311      MisBP:0   MisRate:0.00%    MPKI:0.00
PC:125d4     Total:2      MisBP:0   MisRate:0.00%    MPKI:0.00
PC:14d92     Total:32120      MisBP:0   MisRate:0.00%    MPKI:0.00
PC:14de0     Total:32961      MisBP:0   MisRate:0.00%    MPKI:0.00
PC:14e04     Total:32045      MisBP:0   MisRate:0.00%    MPKI:0.00
PC:14e00     Total:32045      MisBP:0   MisRate:0.00%    MPKI:0.00
PC:14dfe     Total:33174      MisBP:0   MisRate:0.00%    MPKI:0.00
PC:14dfa     Total:33177      MisBP:0   MisRate:0.00%    MPKI:0.00
PC:14df6     Total:33165      MisBP:0   MisRate:0.00%    MPKI:0.00
PC:14df4     Total:33166      MisBP:0   MisRate:0.00%    MPKI:0.00
PC:14df0     Total:33166      MisBP:0   MisRate:0.00%    MPKI:0.00
PC:14dee     Total:33169      MisBP:0   MisRate:0.00%    MPKI:0.00
PC:14dea     Total:33171      MisBP:0   MisRate:0.00%    MPKI:0.00
PC:14de6     Total:32961      MisBP:0   MisRate:0.00%    MPKI:0.00
PC:14de4     Total:32961      MisBP:0   MisRate:0.00%    MPKI:0.00
PC:125d2     Total:2      MisBP:0   MisRate:0.00%    MPKI:0.00
PC:14dde     Total:32963      MisBP:0   MisRate:0.00%    MPKI:0.00
PC:14ddc     Total:32963      MisBP:0   MisRate:0.00%    MPKI:0.00
PC:14dd8     Total:32783      MisBP:0   MisRate:0.00%    MPKI:0.00
PC:14dd6     Total:32783      MisBP:0   MisRate:0.00%    MPKI:0.00
PC:14dd2     Total:32783      MisBP:0   MisRate:0.00%    MPKI:0.00
PC:14dd0     Total:32785      MisBP:0   MisRate:0.00%    MPKI:0.00
PC:14dce     Total:32791      MisBP:0   MisRate:0.00%    MPKI:0.00
PC:14dca     Total:32607      MisBP:0   MisRate:0.00%    MPKI:0.00
PC:14dc8     Total:32607      MisBP:0   MisRate:0.00%    MPKI:0.00
PC:14dc4     Total:32609      MisBP:0   MisRate:0.00%    MPKI:0.00
PC:1259a     Total:1      MisBP:0   MisRate:0.00%    MPKI:0.00
PC:14d68     Total:32673      MisBP:0   MisRate:0.00%    MPKI:0.00
PC:125a8     Total:1      MisBP:0   MisRate:0.00%    MPKI:0.00
PC:14d66     Total:32673      MisBP:0   MisRate:0.00%    MPKI:0.00
PC:125a4     Total:1      MisBP:0   MisRate:0.00%    MPKI:0.00
PC:14d62     Total:32673      MisBP:0   MisRate:0.00%    MPKI:0.00
PC:125a2     Total:1      MisBP:0   MisRate:0.00%    MPKI:0.00
PC:14d60     Total:32674      MisBP:0   MisRate:0.00%    MPKI:0.00
PC:125a0     Total:1      MisBP:0   MisRate:0.00%    MPKI:0.00
PC:14d5e     Total:32675      MisBP:0   MisRate:0.00%    MPKI:0.00
PC:1259c     Total:1      MisBP:0   MisRate:0.00%    MPKI:0.00
PC:14d5a     Total:31831      MisBP:0   MisRate:0.00%    MPKI:0.00
PC:125aa     Total:1      MisBP:0   MisRate:0.00%    MPKI:0.00
PC:14d58     Total:31831      MisBP:0   MisRate:0.00%    MPKI:0.00
PC:14d54     Total:31833      MisBP:0   MisRate:0.00%    MPKI:0.00
PC:12594     Total:1      MisBP:0   MisRate:0.00%    MPKI:0.00
PC:14d52     Total:31833      MisBP:0   MisRate:0.00%    MPKI:0.00
PC:12592     Total:1      MisBP:0   MisRate:0.00%    MPKI:0.00
PC:14d50     Total:31835      MisBP:0   MisRate:0.00%    MPKI:0.00
PC:14d4c     Total:31688      MisBP:0   MisRate:0.00%    MPKI:0.00
PC:1258c     Total:1      MisBP:0   MisRate:0.00%    MPKI:0.00
PC:14d4a     Total:31688      MisBP:0   MisRate:0.00%    MPKI:0.00
PC:12588     Total:1      MisBP:0   MisRate:0.00%    MPKI:0.00
PC:14d7e     Total:32088      MisBP:0   MisRate:0.00%    MPKI:0.00
PC:14d90     Total:32120      MisBP:0   MisRate:0.00%    MPKI:0.00
PC:125ce     Total:2      MisBP:0   MisRate:0.00%    MPKI:0.00
PC:14d8c     Total:32121      MisBP:0   MisRate:0.00%    MPKI:0.00
PC:125cc     Total:2      MisBP:0   MisRate:0.00%    MPKI:0.00
PC:14d8a     Total:32121      MisBP:0   MisRate:0.00%    MPKI:0.00
PC:14d88     Total:32125      MisBP:0   MisRate:0.00%    MPKI:0.00
PC:14d84     Total:32086      MisBP:0   MisRate:0.00%    MPKI:0.00
PC:125c4     Total:1      MisBP:0   MisRate:0.00%    MPKI:0.00
PC:14d82     Total:32086      MisBP:0   MisRate:0.00%    MPKI:0.00
PC:125c0     Total:1      MisBP:0   MisRate:0.00%    MPKI:0.00
PC:14e06     Total:32045      MisBP:0   MisRate:0.00%    MPKI:0.00
PC:14d7c     Total:33197      MisBP:0   MisRate:0.00%    MPKI:0.00
PC:125bc     Total:4      MisBP:0   MisRate:0.00%    MPKI:0.00
PC:14d7a     Total:33204      MisBP:0   MisRate:0.00%    MPKI:0.00
PC:14d76     Total:32883      MisBP:0   MisRate:0.00%    MPKI:0.00
PC:125b6     Total:4      MisBP:0   MisRate:0.00%    MPKI:0.00
PC:14d74     Total:32884      MisBP:0   MisRate:0.00%    MPKI:0.00
PC:14d70     Total:32885      MisBP:0   MisRate:0.00%    MPKI:0.00
PC:14d6e     Total:32888      MisBP:0   MisRate:0.00%    MPKI:0.00
PC:125ae     Total:1      MisBP:0   MisRate:0.00%    MPKI:0.00
PC:14d6c     Total:32890      MisBP:0   MisRate:0.00%    MPKI:0.00
PC:14e9e     Total:31990      MisBP:0   MisRate:0.00%    MPKI:0.00
PC:14ec0     Total:31404      MisBP:0   MisRate:0.00%    MPKI:0.00
PC:14ebe     Total:32685      MisBP:0   MisRate:0.00%    MPKI:0.00
PC:14eba     Total:32686      MisBP:0   MisRate:0.00%    MPKI:0.00
PC:14eb6     Total:32563      MisBP:0   MisRate:0.00%    MPKI:0.00
PC:14eb4     Total:32564      MisBP:0   MisRate:0.00%    MPKI:0.00
PC:14eb0     Total:32566      MisBP:0   MisRate:0.00%    MPKI:0.00
PC:14eae     Total:32568      MisBP:0   MisRate:0.00%    MPKI:0.00
PC:14eaa     Total:32570      MisBP:0   MisRate:0.00%    MPKI:0.00
PC:14ea6     Total:31985      MisBP:0   MisRate:0.00%    MPKI:0.00
PC:14ea4     Total:31989      MisBP:0   MisRate:0.00%    MPKI:0.00
PC:14ea0     Total:31990      MisBP:0   MisRate:0.00%    MPKI:0.00
PC:14ec4     Total:31404      MisBP:0   MisRate:0.00%    MPKI:0.00
PC:14e9a     Total:31991      MisBP:0   MisRate:0.00%    MPKI:0.00
PC:14e96     Total:31661      MisBP:0   MisRate:0.00%    MPKI:0.00
PC:14e94     Total:31662      MisBP:0   MisRate:0.00%    MPKI:0.00
PC:14e90     Total:31669      MisBP:0   MisRate:0.00%    MPKI:0.00
PC:14e8e     Total:31670      MisBP:0   MisRate:0.00%    MPKI:0.00
PC:14e8a     Total:31673      MisBP:0   MisRate:0.00%    MPKI:0.00
PC:14e86     Total:31634      MisBP:0   MisRate:0.00%    MPKI:0.00
PC:14e84     Total:31634      MisBP:0   MisRate:0.00%    MPKI:0.00
PC:14e80     Total:31634      MisBP:0   MisRate:0.00%    MPKI:0.00
PC:14e7e     Total:32865      MisBP:0   MisRate:0.00%    MPKI:0.00
PC:12722     Total:307      MisBP:0   MisRate:0.00%    MPKI:0.00
PC:14ef6     Total:32654      MisBP:0   MisRate:0.00%    MPKI:0.00
PC:12736     Total:750      MisBP:0   MisRate:0.00%    MPKI:0.00
PC:14ef4     Total:32655      MisBP:0   MisRate:0.00%    MPKI:0.00
PC:14ef0     Total:32659      MisBP:0   MisRate:0.00%    MPKI:0.00
PC:12730     Total:253      MisBP:0   MisRate:0.00%    MPKI:0.00
PC:14eee     Total:32663      MisBP:0   MisRate:0.00%    MPKI:0.00
PC:1272c     Total:254      MisBP:0   MisRate:0.00%    MPKI:0.00
PC:14eea     Total:32668      MisBP:0   MisRate:0.00%    MPKI:0.00
PC:12728     Total:254      MisBP:0   MisRate:0.00%    MPKI:0.00
PC:14ee6     Total:32121      MisBP:0   MisRate:0.00%    MPKI:0.00
PC:14ee4     Total:32123      MisBP:0   MisRate:0.00%    MPKI:0.00
PC:14e7a     Total:32869      MisBP:0   MisRate:0.00%    MPKI:0.00
PC:14ee0     Total:32125      MisBP:0   MisRate:0.00%    MPKI:0.00
PC:12720     Total:921      MisBP:0   MisRate:0.00%    MPKI:0.00
PC:14ede     Total:32125      MisBP:0   MisRate:0.00%    MPKI:0.00
PC:14eda     Total:32127      MisBP:0   MisRate:0.00%    MPKI:0.00
PC:14ed6     Total:31625      MisBP:0   MisRate:0.00%    MPKI:0.00
PC:14ed4     Total:31625      MisBP:0   MisRate:0.00%    MPKI:0.00
PC:14ed0     Total:31626      MisBP:0   MisRate:0.00%    MPKI:0.00
PC:14ece     Total:31627      MisBP:0   MisRate:0.00%    MPKI:0.00
PC:14eca     Total:31631      MisBP:0   MisRate:0.00%    MPKI:0.00
PC:14ec6     Total:31404      MisBP:0   MisRate:0.00%    MPKI:0.00
PC:14e1e     Total:32128      MisBP:0   MisRate:0.00%    MPKI:0.00
PC:14e34     Total:32767      MisBP:0   MisRate:0.00%    MPKI:0.00
PC:12672     Total:1      MisBP:0   MisRate:0.00%    MPKI:0.00
PC:14e30     Total:32768      MisBP:0   MisRate:0.00%    MPKI:0.00
PC:12670     Total:1      MisBP:0   MisRate:0.00%    MPKI:0.00
PC:14e2e     Total:32771      MisBP:0   MisRate:0.00%    MPKI:0.00
PC:14e2a     Total:32771      MisBP:0   MisRate:0.00%    MPKI:0.00
PC:14e26     Total:32123      MisBP:0   MisRate:0.00%    MPKI:0.00
PC:12666     Total:1      MisBP:0   MisRate:0.00%    MPKI:0.00
PC:14e24     Total:32125      MisBP:0   MisRate:0.00%    MPKI:0.00
PC:12662     Total:1      MisBP:0   MisRate:0.00%    MPKI:0.00
PC:14e20     Total:32126      MisBP:0   MisRate:0.00%    MPKI:0.00
PC:12676     Total:1      MisBP:0   MisRate:0.00%    MPKI:0.00
PC:1265c     Total:1      MisBP:0   MisRate:0.00%    MPKI:0.00
PC:14e1a     Total:32131      MisBP:0   MisRate:0.00%    MPKI:0.00
PC:14e16     Total:32185      MisBP:0   MisRate:0.00%    MPKI:0.00
PC:12656     Total:1      MisBP:0   MisRate:0.00%    MPKI:0.00
PC:14e14     Total:32187      MisBP:0   MisRate:0.00%    MPKI:0.00
PC:12652     Total:1      MisBP:0   MisRate:0.00%    MPKI:0.00
PC:14e10     Total:32190      MisBP:0   MisRate:0.00%    MPKI:0.00
PC:14e0e     Total:32192      MisBP:0   MisRate:0.00%    MPKI:0.00
PC:14e0a     Total:32195      MisBP:0   MisRate:0.00%    MPKI:0.00
PC:12648     Total:1      MisBP:0   MisRate:0.00%    MPKI:0.00
PC:14e56     Total:31790      MisBP:0   MisRate:0.00%    MPKI:0.00
PC:14e76     Total:32513      MisBP:0   MisRate:0.00%    MPKI:0.00
PC:14e74     Total:32514      MisBP:0   MisRate:0.00%    MPKI:0.00
PC:14e70     Total:32515      MisBP:0   MisRate:0.00%    MPKI:0.00
PC:14e6e     Total:32515      MisBP:0   MisRate:0.00%    MPKI:0.00
PC:14e6a     Total:32515      MisBP:0   MisRate:0.00%    MPKI:0.00
PC:14e66     Total:31907      MisBP:0   MisRate:0.00%    MPKI:0.00
PC:14e64     Total:31907      MisBP:0   MisRate:0.00%    MPKI:0.00
PC:14e60     Total:31907      MisBP:0   MisRate:0.00%    MPKI:0.00
PC:14e5e     Total:31908      MisBP:0   MisRate:0.00%    MPKI:0.00
PC:14e5a     Total:31910      MisBP:0   MisRate:0.00%    MPKI:0.00
PC:1333e     Total:353      MisBP:0   MisRate:0.00%    MPKI:0.00
PC:14e54     Total:31790      MisBP:0   MisRate:0.00%    MPKI:0.00
PC:14e50     Total:31795      MisBP:0   MisRate:0.00%    MPKI:0.00
PC:14e4e     Total:31797      MisBP:0   MisRate:0.00%    MPKI:0.00
PC:14e4a     Total:31805      MisBP:0   MisRate:0.00%    MPKI:0.00
PC:14e46     Total:31762      MisBP:0   MisRate:0.00%    MPKI:0.00
PC:14e44     Total:31762      MisBP:0   MisRate:0.00%    MPKI:0.00
PC:14e40     Total:31767      MisBP:0   MisRate:0.00%    MPKI:0.00
PC:14e3e     Total:32937      MisBP:0   MisRate:0.00%    MPKI:0.00
PC:14e3a     Total:32938      MisBP:0   MisRate:0.00%    MPKI:0.00
PC:14e36     Total:32766      MisBP:0   MisRate:0.00%    MPKI:0.00
PC:155cc     Total:29580      MisBP:0   MisRate:0.00%    MPKI:0.00
PC:158f0     Total:30041      MisBP:0   MisRate:0.00%    MPKI:0.00
PC:13130     Total:10      MisBP:0   MisRate:0.00%    MPKI:0.00
PC:158ee     Total:30044      MisBP:0   MisRate:0.00%    MPKI:0.00
PC:296dc     Total:320      MisBP:0   MisRate:0.00%    MPKI:0.00
PC:158ec     Total:30063      MisBP:0   MisRate:0.00%    MPKI:0.00
PC:1312a     Total:8      MisBP:0   MisRate:0.00%    MPKI:0.00
PC:296d8     Total:320      MisBP:0   MisRate:0.00%    MPKI:0.00
PC:155d0     Total:29580      MisBP:0   MisRate:0.00%    MPKI:0.00
PC:158e8     Total:30020      MisBP:0   MisRate:0.00%    MPKI:0.00
PC:13126     Total:3      MisBP:0   MisRate:0.00%    MPKI:0.00
PC:296d4     Total:320      MisBP:0   MisRate:0.00%    MPKI:0.00
PC:13132     Total:10      MisBP:0   MisRate:0.00%    MPKI:0.00
PC:158e4     Total:30026      MisBP:0   MisRate:0.00%    MPKI:0.00
PC:158e2     Total:30032      MisBP:0   MisRate:0.00%    MPKI:0.00
PC:13120     Total:3      MisBP:0   MisRate:0.00%    MPKI:0.00
PC:158de     Total:30035      MisBP:0   MisRate:0.00%    MPKI:0.00
PC:296cc     Total:320      MisBP:0   MisRate:0.00%    MPKI:0.00
PC:155c4     Total:29516      MisBP:0   MisRate:0.00%    MPKI:0.00
PC:158dc     Total:30048      MisBP:0   MisRate:0.00%    MPKI:0.00
PC:1311c     Total:3      MisBP:0   MisRate:0.00%    MPKI:0.00
PC:158da     Total:30049      MisBP:0   MisRate:0.00%    MPKI:0.00
PC:1311a     Total:3      MisBP:0   MisRate:0.00%    MPKI:0.00
PC:1313e     Total:2      MisBP:0   MisRate:0.00%    MPKI:0.00
PC:13146     Total:351      MisBP:0   MisRate:0.00%    MPKI:0.00
PC:296f4     Total:320      MisBP:0   MisRate:0.00%    MPKI:0.00
PC:155ec     Total:29638      MisBP:0   MisRate:0.00%    MPKI:0.00
PC:15904     Total:29998      MisBP:0   MisRate:0.00%    MPKI:0.00
PC:15902     Total:29999      MisBP:0   MisRate:0.00%    MPKI:0.00
PC:13142     Total:351      MisBP:0   MisRate:0.00%    MPKI:0.00
PC:296f0     Total:320      MisBP:0   MisRate:0.00%    MPKI:0.00
PC:155e8     Total:29605      MisBP:0   MisRate:0.00%    MPKI:0.00
PC:15900     Total:29999      MisBP:0   MisRate:0.00%    MPKI:0.00
PC:296ec     Total:320      MisBP:0   MisRate:0.00%    MPKI:0.00
PC:155e4     Total:29605      MisBP:0   MisRate:0.00%    MPKI:0.00
PC:296c8     Total:320      MisBP:0   MisRate:0.00%    MPKI:0.00
PC:158fc     Total:30009      MisBP:0   MisRate:0.00%    MPKI:0.00
PC:296e8     Total:320      MisBP:0   MisRate:0.00%    MPKI:0.00
PC:155e0     Total:29605      MisBP:0   MisRate:0.00%    MPKI:0.00
PC:1313a     Total:2      MisBP:0   MisRate:0.00%    MPKI:0.00
PC:158f8     Total:30013      MisBP:0   MisRate:0.00%    MPKI:0.00
PC:13138     Total:13      MisBP:0   MisRate:0.00%    MPKI:0.00
PC:158f6     Total:30017      MisBP:0   MisRate:0.00%    MPKI:0.00
PC:13134     Total:9      MisBP:0   MisRate:0.00%    MPKI:0.00
PC:158f2     Total:30028      MisBP:0   MisRate:0.00%    MPKI:0.00
PC:296e0     Total:320      MisBP:0   MisRate:0.00%    MPKI:0.00
PC:1559c     Total:29454      MisBP:0   MisRate:0.00%    MPKI:0.00
PC:29394     Total:2      MisBP:0   MisRate:0.00%    MPKI:0.00
PC:1528c     Total:214      MisBP:0   MisRate:0.00%    MPKI:0.00
PC:12de6     Total:16768      MisBP:0   MisRate:0.00%    MPKI:0.00
PC:155a4     Total:29504      MisBP:0   MisRate:0.00%    MPKI:0.00
PC:296ac     Total:320      MisBP:0   MisRate:0.00%    MPKI:0.00
PC:29390     Total:1      MisBP:0   MisRate:0.00%    MPKI:0.00
PC:15288     Total:428      MisBP:0   MisRate:0.00%    MPKI:0.00
PC:12de2     Total:16770      MisBP:0   MisRate:0.00%    MPKI:0.00
PC:2938c     Total:2      MisBP:0   MisRate:0.00%    MPKI:0.00
PC:15284     Total:208      MisBP:0   MisRate:0.00%    MPKI:0.00
PC:12dde     Total:16870      MisBP:0   MisRate:0.00%    MPKI:0.00
PC:155a6     Total:29504      MisBP:0   MisRate:0.00%    MPKI:0.00
PC:296a4     Total:320      MisBP:0   MisRate:0.00%    MPKI:0.00
PC:12ddc     Total:16840      MisBP:0   MisRate:0.00%    MPKI:0.00
PC:1559a     Total:29454      MisBP:0   MisRate:0.00%    MPKI:0.00
PC:29388     Total:2      MisBP:0   MisRate:0.00%    MPKI:0.00
PC:12dda     Total:16840      MisBP:0   MisRate:0.00%    MPKI:0.00
PC:15598     Total:29454      MisBP:0   MisRate:0.00%    MPKI:0.00
PC:296a0     Total:320      MisBP:0   MisRate:0.00%    MPKI:0.00
PC:12dd8     Total:16840      MisBP:0   MisRate:0.00%    MPKI:0.00
PC:15596     Total:29454      MisBP:0   MisRate:0.00%    MPKI:0.00
PC:29384     Total:2      MisBP:0   MisRate:0.00%    MPKI:0.00
PC:13110     Total:61359      MisBP:0   MisRate:0.00%    MPKI:0.00
PC:155c0     Total:29516      MisBP:0   MisRate:0.00%    MPKI:0.00
PC:158d8     Total:30063      MisBP:0   MisRate:0.00%    MPKI:0.00
PC:13116     Total:61359      MisBP:0   MisRate:0.00%    MPKI:0.00
PC:296c4     Total:320      MisBP:0   MisRate:0.00%    MPKI:0.00
PC:155bc     Total:29519      MisBP:0   MisRate:0.00%    MPKI:0.00
PC:158d4     Total:30047      MisBP:0   MisRate:0.00%    MPKI:0.00
PC:13112     Total:61359      MisBP:0   MisRate:0.00%    MPKI:0.00
PC:296c0     Total:320      MisBP:0   MisRate:0.00%    MPKI:0.00
PC:155b8     Total:29519      MisBP:0   MisRate:0.00%    MPKI:0.00
PC:158d0     Total:30051      MisBP:0   MisRate:0.00%    MPKI:0.00
PC:15906     Total:29998      MisBP:0   MisRate:0.00%    MPKI:0.00
PC:158ce     Total:30057      MisBP:0   MisRate:0.00%    MPKI:0.00
PC:1310c     Total:68035      MisBP:0   MisRate:0.00%    MPKI:0.00
PC:158ca     Total:30064      MisBP:0   MisRate:0.00%    MPKI:0.00
PC:12e12     Total:52760      MisBP:0   MisRate:0.00%    MPKI:0.00
PC:293c0     Total:345      MisBP:0   MisRate:0.00%    MPKI:0.00
PC:12e0c     Total:52864      MisBP:0   MisRate:0.00%    MPKI:0.00
PC:155ca     Total:29580      MisBP:0   MisRate:0.00%    MPKI:0.00
PC:18d08     Total:10769      MisBP:0   MisRate:0.00%    MPKI:0.00
PC:155b2     Total:29501      MisBP:0   MisRate:0.00%    MPKI:0.00
PC:155ae     Total:29501      MisBP:0   MisRate:0.00%    MPKI:0.00
PC:1317e     Total:2208      MisBP:0   MisRate:0.00%    MPKI:0.00
PC:154de     Total:17      MisBP:0   MisRate:0.00%    MPKI:0.00
PC:16748     Total:47548      MisBP:0   MisRate:0.00%    MPKI:0.00
PC:154da     Total:17      MisBP:0   MisRate:0.00%    MPKI:0.00
PC:16744     Total:47561      MisBP:0   MisRate:0.00%    MPKI:0.00
PC:36228     Total:15      MisBP:0   MisRate:0.00%    MPKI:0.00
PC:15d82     Total:29954      MisBP:0   MisRate:0.00%    MPKI:0.00
PC:18c16     Total:61      MisBP:0   MisRate:0.00%    MPKI:0.00
PC:16742     Total:47571      MisBP:0   MisRate:0.00%    MPKI:0.00
PC:154d6     Total:17      MisBP:0   MisRate:0.00%    MPKI:0.00
PC:2972c     Total:319      MisBP:0   MisRate:0.00%    MPKI:0.00
PC:15624     Total:29806      MisBP:0   MisRate:0.00%    MPKI:0.00
PC:1674a     Total:47547      MisBP:0   MisRate:0.00%    MPKI:0.00
PC:1593c     Total:29513      MisBP:0   MisRate:0.00%    MPKI:0.00
PC:1317c     Total:736      MisBP:0   MisRate:0.00%    MPKI:0.00
PC:1593a     Total:29513      MisBP:0   MisRate:0.00%    MPKI:0.00
PC:29728     Total:319      MisBP:0   MisRate:0.00%    MPKI:0.00
PC:15938     Total:2      MisBP:0   MisRate:0.00%    MPKI:0.00
PC:13176     Total:2      MisBP:0   MisRate:0.00%    MPKI:0.00
PC:29724     Total:319      MisBP:0   MisRate:0.00%    MPKI:0.00
PC:13174     Total:2      MisBP:0   MisRate:0.00%    MPKI:0.00
PC:15932     Total:30036      MisBP:0   MisRate:0.00%    MPKI:0.00
PC:13172     Total:2      MisBP:0   MisRate:0.00%    MPKI:0.00
PC:36234     Total:17      MisBP:0   MisRate:0.00%    MPKI:0.00
PC:15d94     Total:29954      MisBP:0   MisRate:0.00%    MPKI:0.00
PC:154ea     Total:52      MisBP:0   MisRate:0.00%    MPKI:0.00
PC:16754     Total:29749      MisBP:0   MisRate:0.00%    MPKI:0.00
PC:154e8     Total:52      MisBP:0   MisRate:0.00%    MPKI:0.00
PC:295f0     Total:4418      MisBP:0   MisRate:0.00%    MPKI:0.00
PC:18c26     Total:11874      MisBP:0   MisRate:0.00%    MPKI:0.00
PC:36236     Total:17      MisBP:0   MisRate:0.00%    MPKI:0.00
PC:13068     Total:436      MisBP:0   MisRate:0.00%    MPKI:0.00
PC:15d90     Total:29954      MisBP:0   MisRate:0.00%    MPKI:0.00
PC:154e6     Total:52      MisBP:0   MisRate:0.00%    MPKI:0.00
PC:16750     Total:40801      MisBP:0   MisRate:0.00%    MPKI:0.00
PC:29720     Total:319      MisBP:0   MisRate:0.00%    MPKI:0.00
PC:13066     Total:436      MisBP:0   MisRate:0.00%    MPKI:0.00
PC:15d8e     Total:29954      MisBP:0   MisRate:0.00%    MPKI:0.00
PC:154e4     Total:52      MisBP:0   MisRate:0.00%    MPKI:0.00
PC:295ec     Total:4426      MisBP:0   MisRate:0.00%    MPKI:0.00
PC:1674e     Total:40807      MisBP:0   MisRate:0.00%    MPKI:0.00
PC:154e2     Total:52      MisBP:0   MisRate:0.00%    MPKI:0.00
PC:36230     Total:17      MisBP:0   MisRate:0.00%    MPKI:0.00
PC:15d8a     Total:29954      MisBP:0   MisRate:0.00%    MPKI:0.00
PC:154e0     Total:17      MisBP:0   MisRate:0.00%    MPKI:0.00
PC:295e8     Total:4426      MisBP:0   MisRate:0.00%    MPKI:0.00
PC:15914     Total:30032      MisBP:0   MisRate:0.00%    MPKI:0.00
PC:1591e     Total:30000      MisBP:0   MisRate:0.00%    MPKI:0.00
PC:1315c     Total:1      MisBP:0   MisRate:0.00%    MPKI:0.00
PC:1591a     Total:30004      MisBP:0   MisRate:0.00%    MPKI:0.00
PC:1315a     Total:1      MisBP:0   MisRate:0.00%    MPKI:0.00
PC:29708     Total:320      MisBP:0   MisRate:0.00%    MPKI:0.00
PC:15600     Total:29676      MisBP:0   MisRate:0.00%    MPKI:0.00
PC:15918     Total:30008      MisBP:0   MisRate:0.00%    MPKI:0.00
PC:13158     Total:1      MisBP:0   MisRate:0.00%    MPKI:0.00
PC:15916     Total:30008      MisBP:0   MisRate:0.00%    MPKI:0.00
PC:13156     Total:1      MisBP:0   MisRate:0.00%    MPKI:0.00
PC:29704     Total:320      MisBP:0   MisRate:0.00%    MPKI:0.00
PC:13160     Total:1      MisBP:0   MisRate:0.00%    MPKI:0.00
PC:13152     Total:1      MisBP:0   MisRate:0.00%    MPKI:0.00
PC:29700     Total:320      MisBP:0   MisRate:0.00%    MPKI:0.00
PC:15910     Total:29990      MisBP:0   MisRate:0.00%    MPKI:0.00
PC:1314e     Total:1      MisBP:0   MisRate:0.00%    MPKI:0.00
PC:296fc     Total:320      MisBP:0   MisRate:0.00%    MPKI:0.00
PC:155f4     Total:29635      MisBP:0   MisRate:0.00%    MPKI:0.00
PC:1590c     Total:29992      MisBP:0   MisRate:0.00%    MPKI:0.00
PC:1314c     Total:351      MisBP:0   MisRate:0.00%    MPKI:0.00
PC:1590a     Total:29996      MisBP:0   MisRate:0.00%    MPKI:0.00
PC:13148     Total:351      MisBP:0   MisRate:0.00%    MPKI:0.00
PC:29718     Total:319      MisBP:0   MisRate:0.00%    MPKI:0.00
PC:15618     Total:29765      MisBP:0   MisRate:0.00%    MPKI:0.00
PC:15930     Total:30037      MisBP:0   MisRate:0.00%    MPKI:0.00
PC:1592e     Total:30046      MisBP:0   MisRate:0.00%    MPKI:0.00
PC:1316e     Total:2      MisBP:0   MisRate:0.00%    MPKI:0.00
PC:2971c     Total:319      MisBP:0   MisRate:0.00%    MPKI:0.00
PC:15614     Total:29765      MisBP:0   MisRate:0.00%    MPKI:0.00
PC:1592c     Total:30046      MisBP:0   MisRate:0.00%    MPKI:0.00
PC:1316c     Total:2      MisBP:0   MisRate:0.00%    MPKI:0.00
PC:1592a     Total:30069      MisBP:0   MisRate:0.00%    MPKI:0.00
PC:1316a     Total:2      MisBP:0   MisRate:0.00%    MPKI:0.00
PC:1527c     Total:7      MisBP:0   MisRate:0.00%    MPKI:0.00
PC:15610     Total:29766      MisBP:0   MisRate:0.00%    MPKI:0.00
PC:15928     Total:30070      MisBP:0   MisRate:0.00%    MPKI:0.00
PC:13166     Total:257      MisBP:0   MisRate:0.00%    MPKI:0.00
PC:29714     Total:319      MisBP:0   MisRate:0.00%    MPKI:0.00
PC:1560c     Total:29676      MisBP:0   MisRate:0.00%    MPKI:0.00
PC:15924     Total:29994      MisBP:0   MisRate:0.00%    MPKI:0.00
PC:13162     Total:257      MisBP:0   MisRate:0.00%    MPKI:0.00
PC:29710     Total:319      MisBP:0   MisRate:0.00%    MPKI:0.00
PC:15608     Total:29676      MisBP:0   MisRate:0.00%    MPKI:0.00
PC:15920     Total:29997      MisBP:0   MisRate:0.00%    MPKI:0.00
PC:1667a     Total:9      MisBP:0   MisRate:0.00%    MPKI:0.00
PC:29272     Total:12      MisBP:0   MisRate:0.00%    MPKI:0.00
PC:15482     Total:59116      MisBP:0   MisRate:0.00%    MPKI:0.00
PC:18bc0     Total:24231      MisBP:0   MisRate:0.00%    MPKI:0.00
PC:130fe     Total:1032919      MisBP:0   MisRate:0.00%    MPKI:0.00
PC:158bc     Total:30075      MisBP:0   MisRate:0.00%    MPKI:0.00
PC:158ba     Total:30079      MisBP:0   MisRate:0.00%    MPKI:0.00
PC:15cba     Total:29863      MisBP:0   MisRate:0.00%    MPKI:0.00
PC:12292     Total:135275      MisBP:0   MisRate:0.00%    MPKI:0.00
PC:14a50     Total:847831      MisBP:0   MisRate:0.00%    MPKI:0.00
PC:15410     Total:9      MisBP:0   MisRate:0.00%    MPKI:0.00
PC:29518     Total:4438      MisBP:0   MisRate:0.00%    MPKI:0.00
PC:15d2c     Total:29905      MisBP:0   MisRate:0.00%    MPKI:0.00
PC:1547c     Total:29564      MisBP:0   MisRate:0.00%    MPKI:0.00
PC:29584     Total:4434      MisBP:0   MisRate:0.00%    MPKI:0.00
PC:166e6     Total:57      MisBP:0   MisRate:0.00%    MPKI:0.00
PC:130f8     Total:1032923      MisBP:0   MisRate:0.00%    MPKI:0.00
PC:158b6     Total:30082      MisBP:0   MisRate:0.00%    MPKI:0.00
PC:15cb8     Total:29910      MisBP:0   MisRate:0.00%    MPKI:0.00
PC:1540e     Total:9      MisBP:0   MisRate:0.00%    MPKI:0.00
PC:16562     Total:1      MisBP:0   MisRate:0.00%    MPKI:0.00
PC:39730     Total:3      MisBP:0   MisRate:0.00%    MPKI:0.00
PC:361ca     Total:292      MisBP:0   MisRate:0.00%    MPKI:0.00
PC:29590     Total:4434      MisBP:0   MisRate:0.00%    MPKI:0.00
PC:296b4     Total:320      MisBP:0   MisRate:0.00%    MPKI:0.00
PC:155ac     Total:29501      MisBP:0   MisRate:0.00%    MPKI:0.00
PC:158c4     Total:30072      MisBP:0   MisRate:0.00%    MPKI:0.00
PC:15cc6     Total:29857      MisBP:0   MisRate:0.00%    MPKI:0.00
PC:1229e     Total:387461      MisBP:0   MisRate:0.00%    MPKI:0.00
PC:14a5c     Total:1812407      MisBP:0   MisRate:0.00%    MPKI:0.00
PC:361d8     Total:206      MisBP:0   MisRate:0.00%    MPKI:0.00
PC:15d32     Total:29905      MisBP:0   MisRate:0.00%    MPKI:0.00
PC:29278     Total:12      MisBP:0   MisRate:0.00%    MPKI:0.00
PC:15170     Total:30      MisBP:0   MisRate:0.00%    MPKI:0.00
PC:15488     Total:29558      MisBP:0   MisRate:0.00%    MPKI:0.00
PC:15d24     Total:29932      MisBP:0   MisRate:0.00%    MPKI:0.00
PC:166f2     Total:3      MisBP:0   MisRate:0.00%    MPKI:0.00
PC:15cc2     Total:29856      MisBP:0   MisRate:0.00%    MPKI:0.00
PC:1229a     Total:135255      MisBP:0   MisRate:0.00%    MPKI:0.00
PC:14a58     Total:821976      MisBP:0   MisRate:0.00%    MPKI:0.00
PC:15cc0     Total:29805      MisBP:0   MisRate:0.00%    MPKI:0.00
PC:15416     Total:9      MisBP:0   MisRate:0.00%    MPKI:0.00
PC:141e0     Total:5      MisBP:0   MisRate:0.00%    MPKI:0.00
PC:39738     Total:3      MisBP:0   MisRate:0.00%    MPKI:0.00
PC:361d2     Total:292      MisBP:0   MisRate:0.00%    MPKI:0.00
PC:13004     Total:3      MisBP:0   MisRate:0.00%    MPKI:0.00
PC:2925e     Total:5      MisBP:0   MisRate:0.00%    MPKI:0.00
PC:15d1c     Total:29935      MisBP:0   MisRate:0.00%    MPKI:0.00
PC:29262     Total:5      MisBP:0   MisRate:0.00%    MPKI:0.00
PC:15472     Total:29521      MisBP:0   MisRate:0.00%    MPKI:0.00
PC:166dc     Total:1053      MisBP:0   MisRate:0.00%    MPKI:0.00
PC:130ee     Total:1032811      MisBP:0   MisRate:0.00%    MPKI:0.00
PC:158ac     Total:30097      MisBP:0   MisRate:0.00%    MPKI:0.00
PC:15cac     Total:29823      MisBP:0   MisRate:0.00%    MPKI:0.00
PC:1666c     Total:16      MisBP:0   MisRate:0.00%    MPKI:0.00
PC:361be     Total:293      MisBP:0   MisRate:0.00%    MPKI:0.00
PC:12ff0     Total:12      MisBP:0   MisRate:0.00%    MPKI:0.00
PC:15d18     Total:29935      MisBP:0   MisRate:0.00%    MPKI:0.00
PC:12ff4     Total:8      MisBP:0   MisRate:0.00%    MPKI:0.00
PC:15156     Total:31      MisBP:0   MisRate:0.00%    MPKI:0.00
PC:166d8     Total:383      MisBP:0   MisRate:0.00%    MPKI:0.00
PC:130ea     Total:1043927      MisBP:0   MisRate:0.00%    MPKI:0.00
PC:29698     Total:320      MisBP:0   MisRate:0.00%    MPKI:0.00
PC:158a8     Total:30107      MisBP:0   MisRate:0.00%    MPKI:0.00
PC:15caa     Total:29825      MisBP:0   MisRate:0.00%    MPKI:0.00
PC:12282     Total:136548      MisBP:0   MisRate:0.00%    MPKI:0.00
PC:14a40     Total:849788      MisBP:0   MisRate:0.00%    MPKI:0.00
PC:15d16     Total:29903      MisBP:0   MisRate:0.00%    MPKI:0.00
PC:2925c     Total:5      MisBP:0   MisRate:0.00%    MPKI:0.00
PC:15d20     Total:29935      MisBP:0   MisRate:0.00%    MPKI:0.00
PC:2926a     Total:12      MisBP:0   MisRate:0.00%    MPKI:0.00
PC:15162     Total:28      MisBP:0   MisRate:0.00%    MPKI:0.00
PC:1547a     Total:29521      MisBP:0   MisRate:0.00%    MPKI:0.00
PC:166e4     Total:57      MisBP:0   MisRate:0.00%    MPKI:0.00
PC:130f6     Total:1032923      MisBP:0   MisRate:0.00%    MPKI:0.00
PC:158b4     Total:30091      MisBP:0   MisRate:0.00%    MPKI:0.00
PC:1655e     Total:1      MisBP:0   MisRate:0.00%    MPKI:0.00
PC:3972c     Total:3      MisBP:0   MisRate:0.00%    MPKI:0.00
PC:361c6     Total:292      MisBP:0   MisRate:0.00%    MPKI:0.00
PC:12ff8     Total:8      MisBP:0   MisRate:0.00%    MPKI:0.00
PC:13106     Total:1005584      MisBP:0   MisRate:0.00%    MPKI:0.00
PC:29266     Total:12      MisBP:0   MisRate:0.00%    MPKI:0.00
PC:15476     Total:29521      MisBP:0   MisRate:0.00%    MPKI:0.00
PC:18bb4     Total:24959      MisBP:0   MisRate:0.00%    MPKI:0.00
PC:166e0     Total:960      MisBP:0   MisRate:0.00%    MPKI:0.00
PC:130f2     Total:1032811      MisBP:0   MisRate:0.00%    MPKI:0.00
PC:158b0     Total:30110      MisBP:0   MisRate:0.00%    MPKI:0.00
PC:15cb0     Total:29866      MisBP:0   MisRate:0.00%    MPKI:0.00
PC:12288     Total:136636      MisBP:0   MisRate:0.00%    MPKI:0.00
PC:14a46     Total:849638      MisBP:0   MisRate:0.00%    MPKI:0.00
PC:361c2     Total:293      MisBP:0   MisRate:0.00%    MPKI:0.00
PC:29368     Total:4      MisBP:0   MisRate:0.00%    MPKI:0.00
PC:167ea     Total:4849      MisBP:0   MisRate:0.00%    MPKI:0.00
PC:12dbe     Total:19339      MisBP:0   MisRate:0.00%    MPKI:0.00
PC:2936c     Total:4      MisBP:0   MisRate:0.00%    MPKI:0.00
PC:15264     Total:7      MisBP:0   MisRate:0.00%    MPKI:0.00
PC:1557c     Total:29455      MisBP:0   MisRate:0.00%    MPKI:0.00
PC:29684     Total:320      MisBP:0   MisRate:0.00%    MPKI:0.00
PC:18fa4     Total:23      MisBP:0   MisRate:0.00%    MPKI:0.00
PC:167e6     Total:4850      MisBP:0   MisRate:0.00%    MPKI:0.00
PC:12dbc     Total:19339      MisBP:0   MisRate:0.00%    MPKI:0.00
PC:1557a     Total:29455      MisBP:0   MisRate:0.00%    MPKI:0.00
PC:12dba     Total:19425      MisBP:0   MisRate:0.00%    MPKI:0.00
PC:18fa8     Total:22      MisBP:0   MisRate:0.00%    MPKI:0.00
PC:15260     Total:7      MisBP:0   MisRate:0.00%    MPKI:0.00
PC:167e2     Total:4355      MisBP:0   MisRate:0.00%    MPKI:0.00
PC:12db8     Total:19425      MisBP:0   MisRate:0.00%    MPKI:0.00
PC:18f9e     Total:29      MisBP:0   MisRate:0.00%    MPKI:0.00
PC:167e0     Total:676      MisBP:0   MisRate:0.00%    MPKI:0.00
PC:12db6     Total:19425      MisBP:0   MisRate:0.00%    MPKI:0.00
PC:29364     Total:4      MisBP:0   MisRate:0.00%    MPKI:0.00
PC:1525c     Total:7      MisBP:0   MisRate:0.00%    MPKI:0.00
PC:15574     Total:29453      MisBP:0   MisRate:0.00%    MPKI:0.00
PC:2967c     Total:321      MisBP:0   MisRate:0.00%    MPKI:0.00
PC:15270     Total:7      MisBP:0   MisRate:0.00%    MPKI:0.00
PC:12dd6     Total:16840      MisBP:0   MisRate:0.00%    MPKI:0.00
PC:15594     Total:29454      MisBP:0   MisRate:0.00%    MPKI:0.00
PC:2969c     Total:320      MisBP:0   MisRate:0.00%    MPKI:0.00
PC:12dd4     Total:16840      MisBP:0   MisRate:0.00%    MPKI:0.00
PC:15592     Total:29454      MisBP:0   MisRate:0.00%    MPKI:0.00
PC:12dd0     Total:16840      MisBP:0   MisRate:0.00%    MPKI:0.00
PC:1558e     Total:29454      MisBP:0   MisRate:0.00%    MPKI:0.00
PC:12dcc     Total:17869      MisBP:0   MisRate:0.00%    MPKI:0.00
PC:1558a     Total:29454      MisBP:0   MisRate:0.00%    MPKI:0.00
PC:12dca     Total:17869      MisBP:0   MisRate:0.00%    MPKI:0.00
PC:29378     Total:4      MisBP:0   MisRate:0.00%    MPKI:0.00
PC:12db4     Total:19425      MisBP:0   MisRate:0.00%    MPKI:0.00
PC:15588     Total:29454      MisBP:0   MisRate:0.00%    MPKI:0.00
PC:29690     Total:320      MisBP:0   MisRate:0.00%    MPKI:0.00
PC:12dc6     Total:17869      MisBP:0   MisRate:0.00%    MPKI:0.00
PC:29374     Total:4      MisBP:0   MisRate:0.00%    MPKI:0.00
PC:15584     Total:29454      MisBP:0   MisRate:0.00%    MPKI:0.00
PC:2968c     Total:320      MisBP:0   MisRate:0.00%    MPKI:0.00
PC:12dc2     Total:17856      MisBP:0   MisRate:0.00%    MPKI:0.00
PC:29370     Total:4      MisBP:0   MisRate:0.00%    MPKI:0.00
PC:15580     Total:29454      MisBP:0   MisRate:0.00%    MPKI:0.00
PC:29688     Total:320      MisBP:0   MisRate:0.00%    MPKI:0.00
PC:29560     Total:4434      MisBP:0   MisRate:0.00%    MPKI:0.00
PC:12ffa     Total:8      MisBP:0   MisRate:0.00%    MPKI:0.00
PC:15d22     Total:29932      MisBP:0   MisRate:0.00%    MPKI:0.00
PC:29268     Total:12      MisBP:0   MisRate:0.00%    MPKI:0.00
PC:15160     Total:28      MisBP:0   MisRate:0.00%    MPKI:0.00
PC:15478     Total:29521      MisBP:0   MisRate:0.00%    MPKI:0.00
PC:29580     Total:4434      MisBP:0   MisRate:0.00%    MPKI:0.00
PC:158b2     Total:30095      MisBP:0   MisRate:0.00%    MPKI:0.00
PC:15d02     Total:29901      MisBP:0   MisRate:0.00%    MPKI:0.00
PC:29248     Total:25      MisBP:0   MisRate:0.00%    MPKI:0.00
PC:15140     Total:31      MisBP:0   MisRate:0.00%    MPKI:0.00
PC:15458     Total:29885      MisBP:0   MisRate:0.00%    MPKI:0.00
PC:361c8     Total:292      MisBP:0   MisRate:0.00%    MPKI:0.00
PC:18b96     Total:83      MisBP:0   MisRate:0.00%    MPKI:0.00
PC:15c96     Total:29919      MisBP:0   MisRate:0.00%    MPKI:0.00
PC:153ec     Total:30004      MisBP:0   MisRate:0.00%    MPKI:0.00
PC:294f4     Total:351      MisBP:0   MisRate:0.00%    MPKI:0.00
PC:16656     Total:19      MisBP:0   MisRate:0.00%    MPKI:0.00
PC:15892     Total:30130      MisBP:0   MisRate:0.00%    MPKI:0.00
PC:15cc8     Total:29857      MisBP:0   MisRate:0.00%    MPKI:0.00
PC:1541e     Total:9      MisBP:0   MisRate:0.00%    MPKI:0.00
PC:16688     Total:3676      MisBP:0   MisRate:0.00%    MPKI:0.00
PC:16572     Total:1      MisBP:0   MisRate:0.00%    MPKI:0.00
PC:15d44     Total:29928      MisBP:0   MisRate:0.00%    MPKI:0.00
PC:15572     Total:29453      MisBP:0   MisRate:0.00%    MPKI:0.00
PC:18f9a     Total:29      MisBP:0   MisRate:0.00%    MPKI:0.00
PC:167dc     Total:754      MisBP:0   MisRate:0.00%    MPKI:0.00
PC:15d5a     Total:29879      MisBP:0   MisRate:0.00%    MPKI:0.00
PC:1671a     Total:3      MisBP:0   MisRate:0.00%    MPKI:0.00
PC:15d50     Total:29933      MisBP:0   MisRate:0.00%    MPKI:0.00
PC:154a6     Total:13      MisBP:0   MisRate:0.00%    MPKI:0.00
PC:16710     Total:3      MisBP:0   MisRate:0.00%    MPKI:0.00
PC:361ea     Total:145      MisBP:0   MisRate:0.00%    MPKI:0.00
PC:1301c     Total:1      MisBP:0   MisRate:0.00%    MPKI:0.00
PC:1306c     Total:436      MisBP:0   MisRate:0.00%    MPKI:0.00
PC:1549a     Total:13      MisBP:0   MisRate:0.00%    MPKI:0.00
PC:15d36     Total:29905      MisBP:0   MisRate:0.00%    MPKI:0.00
PC:2927c     Total:12      MisBP:0   MisRate:0.00%    MPKI:0.00
PC:15174     Total:28      MisBP:0   MisRate:0.00%    MPKI:0.00
PC:1548c     Total:29558      MisBP:0   MisRate:0.00%    MPKI:0.00
PC:29594     Total:4434      MisBP:0   MisRate:0.00%    MPKI:0.00
PC:166f6     Total:3      MisBP:0   MisRate:0.00%    MPKI:0.00
PC:13108     Total:1005582      MisBP:0   MisRate:0.00%    MPKI:0.00
PC:362d6     Total:2      MisBP:0   MisRate:0.00%    MPKI:0.00
PC:158c6     Total:30071      MisBP:0   MisRate:0.00%    MPKI:0.00
PC:156ec     Total:30345      MisBP:0   MisRate:0.00%    MPKI:0.00
PC:15a14     Total:29914      MisBP:0   MisRate:0.00%    MPKI:0.00
PC:29800     Total:101      MisBP:0   MisRate:0.00%    MPKI:0.00
PC:15a10     Total:29914      MisBP:0   MisRate:0.00%    MPKI:0.00
PC:15a0e     Total:29914      MisBP:0   MisRate:0.00%    MPKI:0.00
PC:297fc     Total:369      MisBP:0   MisRate:0.00%    MPKI:0.00
PC:15a0c     Total:29914      MisBP:0   MisRate:0.00%    MPKI:0.00
PC:15a0a     Total:29833      MisBP:0   MisRate:0.00%    MPKI:0.00
PC:297f8     Total:373      MisBP:0   MisRate:0.00%    MPKI:0.00
PC:156f0     Total:30345      MisBP:0   MisRate:0.00%    MPKI:0.00
PC:15a08     Total:29833      MisBP:0   MisRate:0.00%    MPKI:0.00
PC:297f4     Total:375      MisBP:0   MisRate:0.00%    MPKI:0.00
PC:156fc     Total:30375      MisBP:0   MisRate:0.00%    MPKI:0.00
PC:15a04     Total:29792      MisBP:0   MisRate:0.00%    MPKI:0.00
PC:297f0     Total:378      MisBP:0   MisRate:0.00%    MPKI:0.00
PC:156e8     Total:30376      MisBP:0   MisRate:0.00%    MPKI:0.00
PC:15a00     Total:29792      MisBP:0   MisRate:0.00%    MPKI:0.00
PC:159fe     Total:29805      MisBP:0   MisRate:0.00%    MPKI:0.00
PC:297ec     Total:126      MisBP:0   MisRate:0.00%    MPKI:0.00
PC:156e4     Total:30298      MisBP:0   MisRate:0.00%    MPKI:0.00
PC:159fc     Total:29805      MisBP:0   MisRate:0.00%    MPKI:0.00
PC:159fa     Total:29773      MisBP:0   MisRate:0.00%    MPKI:0.00
PC:297e8     Total:53      MisBP:0   MisRate:0.00%    MPKI:0.00
PC:1570c     Total:30397      MisBP:0   MisRate:0.00%    MPKI:0.00
PC:15a40     Total:29901      MisBP:0   MisRate:0.00%    MPKI:0.00
PC:15a3e     Total:29921      MisBP:0   MisRate:0.00%    MPKI:0.00
PC:15a3a     Total:29921      MisBP:0   MisRate:0.00%    MPKI:0.00
PC:15a36     Total:29921      MisBP:0   MisRate:0.00%    MPKI:0.00
PC:15a32     Total:29921      MisBP:0   MisRate:0.00%    MPKI:0.00
PC:15a30     Total:29938      MisBP:0   MisRate:0.00%    MPKI:0.00
PC:15a2e     Total:29905      MisBP:0   MisRate:0.00%    MPKI:0.00
PC:15a2a     Total:29949      MisBP:0   MisRate:0.00%    MPKI:0.00
PC:15710     Total:30394      MisBP:0   MisRate:0.00%    MPKI:0.00
PC:15a28     Total:29949      MisBP:0   MisRate:0.00%    MPKI:0.00
PC:29814     Total:118      MisBP:0   MisRate:0.00%    MPKI:0.00
PC:156e0     Total:30298      MisBP:0   MisRate:0.00%    MPKI:0.00
PC:15a24     Total:29949      MisBP:0   MisRate:0.00%    MPKI:0.00
PC:29810     Total:59      MisBP:0   MisRate:0.00%    MPKI:0.00
PC:15708     Total:30279      MisBP:0   MisRate:0.00%    MPKI:0.00
PC:15a20     Total:29949      MisBP:0   MisRate:0.00%    MPKI:0.00
PC:15a1e     Total:29949      MisBP:0   MisRate:0.00%    MPKI:0.00
PC:15a1a     Total:29931      MisBP:0   MisRate:0.00%    MPKI:0.00
PC:29808     Total:186      MisBP:0   MisRate:0.00%    MPKI:0.00
PC:15700     Total:30279      MisBP:0   MisRate:0.00%    MPKI:0.00
PC:15a18     Total:29931      MisBP:0   MisRate:0.00%    MPKI:0.00
PC:15a16     Total:29931      MisBP:0   MisRate:0.00%    MPKI:0.00
PC:297b4     Total:28      MisBP:0   MisRate:0.00%    MPKI:0.00
PC:156bc     Total:30286      MisBP:0   MisRate:0.00%    MPKI:0.00
PC:159d4     Total:29640      MisBP:0   MisRate:0.00%    MPKI:0.00
PC:159d2     Total:29642      MisBP:0   MisRate:0.00%    MPKI:0.00
PC:159ce     Total:29642      MisBP:0   MisRate:0.00%    MPKI:0.00
PC:297bc     Total:54      MisBP:0   MisRate:0.00%    MPKI:0.00
PC:156b4     Total:30324      MisBP:0   MisRate:0.00%    MPKI:0.00
PC:159cc     Total:29642      MisBP:0   MisRate:0.00%    MPKI:0.00
PC:159ca     Total:29642      MisBP:0   MisRate:0.00%    MPKI:0.00
PC:297b8     Total:54      MisBP:0   MisRate:0.00%    MPKI:0.00
PC:159c8     Total:29642      MisBP:0   MisRate:0.00%    MPKI:0.00
PC:159c6     Total:29598      MisBP:0   MisRate:0.00%    MPKI:0.00
PC:297c4     Total:52      MisBP:0   MisRate:0.00%    MPKI:0.00
PC:159c4     Total:29598      MisBP:0   MisRate:0.00%    MPKI:0.00
PC:297b0     Total:56      MisBP:0   MisRate:0.00%    MPKI:0.00
PC:156a8     Total:30259      MisBP:0   MisRate:0.00%    MPKI:0.00
PC:159c0     Total:29598      MisBP:0   MisRate:0.00%    MPKI:0.00
PC:159be     Total:29610      MisBP:0   MisRate:0.00%    MPKI:0.00
PC:159ba     Total:29610      MisBP:0   MisRate:0.00%    MPKI:0.00
PC:297a8     Total:28      MisBP:0   MisRate:0.00%    MPKI:0.00
PC:156a0     Total:30263      MisBP:0   MisRate:0.00%    MPKI:0.00
PC:159b8     Total:29610      MisBP:0   MisRate:0.00%    MPKI:0.00
PC:159b6     Total:29610      MisBP:0   MisRate:0.00%    MPKI:0.00
PC:159ea     Total:29691      MisBP:0   MisRate:0.00%    MPKI:0.00
PC:159f8     Total:29773      MisBP:0   MisRate:0.00%    MPKI:0.00
PC:297e4     Total:53      MisBP:0   MisRate:0.00%    MPKI:0.00
PC:156dc     Total:30298      MisBP:0   MisRate:0.00%    MPKI:0.00
PC:159f4     Total:29730      MisBP:0   MisRate:0.00%    MPKI:0.00
PC:159f2     Total:29730      MisBP:0   MisRate:0.00%    MPKI:0.00
PC:297e0     Total:159      MisBP:0   MisRate:0.00%    MPKI:0.00
PC:156d8     Total:30298      MisBP:0   MisRate:0.00%    MPKI:0.00
PC:159f0     Total:29730      MisBP:0   MisRate:0.00%    MPKI:0.00
PC:297dc     Total:159      MisBP:0   MisRate:0.00%    MPKI:0.00
PC:159ec     Total:29687      MisBP:0   MisRate:0.00%    MPKI:0.00
PC:15a42     Total:29901      MisBP:0   MisRate:0.00%    MPKI:0.00
PC:159e6     Total:29691      MisBP:0   MisRate:0.00%    MPKI:0.00
PC:159e2     Total:29691      MisBP:0   MisRate:0.00%    MPKI:0.00
PC:159de     Total:29691      MisBP:0   MisRate:0.00%    MPKI:0.00
PC:297cc     Total:53      MisBP:0   MisRate:0.00%    MPKI:0.00
PC:156c4     Total:30272      MisBP:0   MisRate:0.00%    MPKI:0.00
PC:159dc     Total:29691      MisBP:0   MisRate:0.00%    MPKI:0.00
PC:159da     Total:29640      MisBP:0   MisRate:0.00%    MPKI:0.00
PC:297c8     Total:53      MisBP:0   MisRate:0.00%    MPKI:0.00
PC:156c0     Total:30188      MisBP:0   MisRate:0.00%    MPKI:0.00
PC:159d8     Total:29640      MisBP:0   MisRate:0.00%    MPKI:0.00
PC:15ac4     Total:29790      MisBP:0   MisRate:0.00%    MPKI:0.00
PC:15ae0     Total:29852      MisBP:0   MisRate:0.00%    MPKI:0.00
PC:15ade     Total:29852      MisBP:0   MisRate:0.00%    MPKI:0.00
PC:15adc     Total:29852      MisBP:0   MisRate:0.00%    MPKI:0.00
PC:15ada     Total:29800      MisBP:0   MisRate:0.00%    MPKI:0.00
PC:15ad6     Total:29800      MisBP:0   MisRate:0.00%    MPKI:0.00
PC:15ad2     Total:29800      MisBP:0   MisRate:0.00%    MPKI:0.00
PC:15ad0     Total:29837      MisBP:0   MisRate:0.00%    MPKI:0.00
PC:15ace     Total:29830      MisBP:0   MisRate:0.00%    MPKI:0.00
PC:15aca     Total:29830      MisBP:0   MisRate:0.00%    MPKI:0.00
[...]
PC:12e1e     Total:48745      MisBP:0   MisRate:0.00%    MPKI:0.00
PC:152f8     Total:1121      MisBP:0   MisRate:0.00%    MPKI:0.00
PC:12eb6     Total:42      MisBP:0   MisRate:0.00%    MPKI:0.00
PC:29464     Total:402      MisBP:0   MisRate:0.00%    MPKI:0.00
PC:15672     Total:30047      MisBP:0   MisRate:0.00%    MPKI:0.00
PC:155fe     Total:29685      MisBP:0   MisRate:0.00%    MPKI:0.00
PC:15682     Total:30109      MisBP:0   MisRate:0.00%    MPKI:0.00
PC:29490     Total:51      MisBP:0   MisRate:0.00%    MPKI:0.00
PC:18d46     Total:10323      MisBP:0   MisRate:0.00%    MPKI:0.00
PC:15380     Total:2      MisBP:0   MisRate:0.00%    MPKI:0.00
PC:29488     Total:51      MisBP:0   MisRate:0.00%    MPKI:0.00
PC:18dd4     Total:14458      MisBP:0   MisRate:0.00%    MPKI:0.00
PC:15696     Total:30157      MisBP:0   MisRate:0.00%    MPKI:0.00
PC:12ed8     Total:621      MisBP:0   MisRate:0.00%    MPKI:0.00
PC:1537c     Total:2      MisBP:0   MisRate:0.00%    MPKI:0.00
PC:18d3e     Total:10455      MisBP:0   MisRate:0.00%    MPKI:0.00
PC:15802     Total:30261      MisBP:0   MisRate:0.00%    MPKI:0.00
PC:29484     Total:51      MisBP:0   MisRate:0.00%    MPKI:0.00
PC:15c14     Total:30469      MisBP:0   MisRate:0.00%    MPKI:0.00
PC:15692     Total:30166      MisBP:0   MisRate:0.00%    MPKI:0.00
PC:12e4e     Total:314      MisBP:0   MisRate:0.00%    MPKI:0.00
PC:15810     Total:30287      MisBP:0   MisRate:0.00%    MPKI:0.00
PC:29618     Total:4413      MisBP:0   MisRate:0.00%    MPKI:0.00
PC:293f0     Total:170      MisBP:0   MisRate:0.00%    MPKI:0.00
PC:29474     Total:55      MisBP:0   MisRate:0.00%    MPKI:0.00
PC:12ec6     Total:46      MisBP:0   MisRate:0.00%    MPKI:0.00
PC:18dc2     Total:6910      MisBP:0   MisRate:0.00%    MPKI:0.00
PC:15686     Total:30109      MisBP:0   MisRate:0.00%    MPKI:0.00
PC:12ecc     Total:46      MisBP:0   MisRate:0.00%    MPKI:0.00
PC:1568a     Total:30109      MisBP:0   MisRate:0.00%    MPKI:0.00
PC:293fc     Total:352      MisBP:0   MisRate:0.00%    MPKI:0.00
PC:15828     Total:30275      MisBP:0   MisRate:0.00%    MPKI:0.00
PC:12ed0     Total:46      MisBP:0   MisRate:0.00%    MPKI:0.00
PC:1568e     Total:30167      MisBP:0   MisRate:0.00%    MPKI:0.00
PC:29480     Total:51      MisBP:0   MisRate:0.00%    MPKI:0.00
PC:12ed4     Total:1245      MisBP:0   MisRate:0.00%    MPKI:0.00
PC:152f0     Total:188      MisBP:1   MisRate:0.53%    MPKI:0.00
PC:151f8     Total:3      MisBP:1   MisRate:33.33%    MPKI:0.00
PC:18dc0     Total:6910      MisBP:1   MisRate:0.01%    MPKI:0.00
PC:11c96     Total:8      MisBP:1   MisRate:12.50%    MPKI:0.00
PC:18fa0     Total:29      MisBP:1   MisRate:3.45%    MPKI:0.00
PC:11b88     Total:1      MisBP:1   MisRate:100.00%    MPKI:0.00
PC:14af2     Total:2      MisBP:1   MisRate:50.00%    MPKI:0.00
PC:166f0     Total:7      MisBP:1   MisRate:14.29%    MPKI:0.00
PC:11d68     Total:8      MisBP:1   MisRate:12.50%    MPKI:0.00
PC:125f0     Total:128694      MisBP:1   MisRate:0.00%    MPKI:0.00
PC:167d0     Total:811      MisBP:1   MisRate:0.12%    MPKI:0.00
PC:140be     Total:264      MisBP:1   MisRate:0.38%    MPKI:0.00
PC:15196     Total:25      MisBP:1   MisRate:4.00%    MPKI:0.00
PC:11c66     Total:7      MisBP:1   MisRate:14.29%    MPKI:0.00
PC:111de     Total:81      MisBP:1   MisRate:1.23%    MPKI:0.00
PC:166a8     Total:62      MisBP:1   MisRate:1.61%    MPKI:0.00
PC:15408     Total:29528      MisBP:1   MisRate:0.00%    MPKI:0.00
PC:125b2     Total:1      MisBP:1   MisRate:100.00%    MPKI:0.00
PC:121be     Total:867      MisBP:1   MisRate:0.12%    MPKI:0.00
PC:1338e     Total:7      MisBP:1   MisRate:14.29%    MPKI:0.00
PC:14bc4     Total:414      MisBP:2   MisRate:0.48%    MPKI:0.00
PC:1516a     Total:28      MisBP:2   MisRate:7.14%    MPKI:0.00
PC:15934     Total:30030      MisBP:2   MisRate:0.01%    MPKI:0.00
PC:16802     Total:3      MisBP:2   MisRate:66.67%    MPKI:0.00
PC:1417e     Total:74      MisBP:2   MisRate:2.70%    MPKI:0.00
PC:29354     Total:2      MisBP:2   MisRate:100.00%    MPKI:0.00
PC:128f6     Total:344      MisBP:2   MisRate:0.58%    MPKI:0.00
PC:11bb4     Total:65551      MisBP:2   MisRate:0.00%    MPKI:0.00
PC:13074     Total:3114      MisBP:2   MisRate:0.06%    MPKI:0.00
PC:12f14     Total:18      MisBP:2   MisRate:11.11%    MPKI:0.00
PC:29348     Total:361      MisBP:2   MisRate:0.55%    MPKI:0.00
PC:13354     Total:1914      MisBP:2   MisRate:0.10%    MPKI:0.00
PC:15286     Total:208      MisBP:2   MisRate:0.96%    MPKI:0.00
PC:15498     Total:29554      MisBP:2   MisRate:0.01%    MPKI:0.00
PC:11c90     Total:51      MisBP:2   MisRate:3.92%    MPKI:0.00
PC:361f6     Total:141      MisBP:2   MisRate:1.42%    MPKI:0.00
PC:18fb2     Total:22      MisBP:2   MisRate:9.09%    MPKI:0.00
PC:3970e     Total:5      MisBP:2   MisRate:40.00%    MPKI:0.00
PC:140d2     Total:2437      MisBP:2   MisRate:0.08%    MPKI:0.00
PC:1532a     Total:8      MisBP:2   MisRate:25.00%    MPKI:0.00
PC:121f0     Total:811      MisBP:3   MisRate:0.37%    MPKI:0.00
PC:11cc6     Total:65566      MisBP:3   MisRate:0.00%    MPKI:0.00
PC:12e6c     Total:352059      MisBP:3   MisRate:0.00%    MPKI:0.00
PC:13000     Total:7      MisBP:3   MisRate:42.86%    MPKI:0.00
PC:11b12     Total:179974      MisBP:3   MisRate:0.00%    MPKI:0.00
PC:14f58     Total:70      MisBP:3   MisRate:4.29%    MPKI:0.00
PC:11d8a     Total:262      MisBP:3   MisRate:1.15%    MPKI:0.00
PC:1104e     Total:249      MisBP:3   MisRate:1.20%    MPKI:0.00
PC:12902     Total:249      MisBP:3   MisRate:1.20%    MPKI:0.00
PC:18d92     Total:4740      MisBP:3   MisRate:0.06%    MPKI:0.00
PC:165a8     Total:3      MisBP:3   MisRate:100.00%    MPKI:0.00
PC:14f1e     Total:21      MisBP:3   MisRate:14.29%    MPKI:0.00
PC:151f0     Total:7      MisBP:3   MisRate:42.86%    MPKI:0.00
PC:153d2     Total:12      MisBP:3   MisRate:25.00%    MPKI:0.00
PC:29404     Total:351      MisBP:4   MisRate:1.14%    MPKI:0.00
PC:165be     Total:32      MisBP:4   MisRate:12.50%    MPKI:0.00
PC:14bde     Total:191      MisBP:4   MisRate:2.09%    MPKI:0.00
PC:15504     Total:7      MisBP:4   MisRate:57.14%    MPKI:0.00
PC:14bf6     Total:190      MisBP:4   MisRate:2.11%    MPKI:0.00
PC:152aa     Total:12      MisBP:4   MisRate:33.33%    MPKI:0.00
PC:16896     Total:55      MisBP:4   MisRate:7.27%    MPKI:0.00
PC:16696     Total:81      MisBP:4   MisRate:4.94%    MPKI:0.00
PC:166b6     Total:60      MisBP:4   MisRate:6.67%    MPKI:0.00
PC:10f9c     Total:260      MisBP:5   MisRate:1.92%    MPKI:0.00
PC:166e8     Total:57      MisBP:5   MisRate:8.77%    MPKI:0.00
PC:18fd0     Total:19      MisBP:5   MisRate:26.32%    MPKI:0.00
PC:11d9a     Total:20      MisBP:5   MisRate:25.00%    MPKI:0.00
PC:12e56     Total:263      MisBP:5   MisRate:1.90%    MPKI:0.00
PC:167fa     Total:33      MisBP:5   MisRate:15.15%    MPKI:0.00
PC:1666e     Total:16      MisBP:5   MisRate:31.25%    MPKI:0.00
PC:14f2e     Total:11      MisBP:6   MisRate:54.55%    MPKI:0.00
PC:12e5c     Total:336      MisBP:6   MisRate:1.79%    MPKI:0.00
PC:1272a     Total:254      MisBP:6   MisRate:2.36%    MPKI:0.00
PC:13382     Total:319      MisBP:6   MisRate:1.88%    MPKI:0.00
PC:1593e     Total:29501      MisBP:6   MisRate:0.02%    MPKI:0.00
PC:18de2     Total:73      MisBP:7   MisRate:9.59%    MPKI:0.00
PC:154fa     Total:36      MisBP:7   MisRate:19.44%    MPKI:0.00
PC:11d58     Total:175092      MisBP:7   MisRate:0.00%    MPKI:0.00
PC:16760     Total:26958      MisBP:7   MisRate:0.03%    MPKI:0.00
PC:1697a     Total:707      MisBP:7   MisRate:0.99%    MPKI:0.00
PC:151e8     Total:1147      MisBP:7   MisRate:0.61%    MPKI:0.00
PC:16768     Total:12      MisBP:7   MisRate:58.33%    MPKI:0.00
PC:11c50     Total:175102      MisBP:7   MisRate:0.00%    MPKI:0.00
PC:12fde     Total:12      MisBP:7   MisRate:58.33%    MPKI:0.00
PC:1530e     Total:936      MisBP:7   MisRate:0.75%    MPKI:0.00
PC:153cc     Total:29      MisBP:8   MisRate:27.59%    MPKI:0.00
PC:1208c     Total:564      MisBP:8   MisRate:1.42%    MPKI:0.00
PC:14162     Total:473      MisBP:8   MisRate:1.69%    MPKI:0.00
PC:10158     Total:1134      MisBP:8   MisRate:0.71%    MPKI:0.00
PC:13346     Total:354      MisBP:8   MisRate:2.26%    MPKI:0.00
PC:153a8     Total:80      MisBP:9   MisRate:11.25%    MPKI:0.00
PC:14f16     Total:31578      MisBP:9   MisRate:0.03%    MPKI:0.00
PC:15576     Total:29453      MisBP:11   MisRate:0.04%    MPKI:0.00
PC:12fd8     Total:12      MisBP:11   MisRate:91.67%    MPKI:0.00
PC:15292     Total:214      MisBP:12   MisRate:5.61%    MPKI:0.00
PC:1308a     Total:68351      MisBP:12   MisRate:0.02%    MPKI:0.00
PC:130ae     Total:1322624      MisBP:12   MisRate:0.00%    MPKI:0.00
PC:12efc     Total:299      MisBP:12   MisRate:4.01%    MPKI:0.00
PC:16606     Total:31848      MisBP:14   MisRate:0.04%    MPKI:0.00
PC:15120     Total:42      MisBP:14   MisRate:33.33%    MPKI:0.00
PC:154cc     Total:64      MisBP:14   MisRate:21.88%    MPKI:0.00
PC:293d0     Total:345      MisBP:14   MisRate:4.06%    MPKI:0.00
PC:18e8c     Total:181      MisBP:15   MisRate:8.29%    MPKI:0.00
PC:15302     Total:1111      MisBP:15   MisRate:1.35%    MPKI:0.00
PC:141a8     Total:335      MisBP:16   MisRate:4.78%    MPKI:0.00
PC:12140     Total:445      MisBP:17   MisRate:3.82%    MPKI:0.00
PC:15444     Total:122      MisBP:17   MisRate:13.93%    MPKI:0.00
PC:16644     Total:2092      MisBP:18   MisRate:0.86%    MPKI:0.00
PC:120e6     Total:413      MisBP:18   MisRate:4.36%    MPKI:0.00
PC:29818     Total:59      MisBP:19   MisRate:32.20%    MPKI:0.00
PC:16854     Total:28745      MisBP:20   MisRate:0.07%    MPKI:0.00
PC:167f2     Total:4351      MisBP:21   MisRate:0.48%    MPKI:0.00
PC:1511c     Total:1346619      MisBP:21   MisRate:0.00%    MPKI:0.00
PC:29470     Total:402      MisBP:21   MisRate:5.22%    MPKI:0.00
PC:10ecc     Total:275      MisBP:22   MisRate:8.00%    MPKI:0.00
PC:125f6     Total:128695      MisBP:23   MisRate:0.02%    MPKI:0.00
PC:14168     Total:472      MisBP:24   MisRate:5.08%    MPKI:0.00
PC:153c2     Total:4241      MisBP:24   MisRate:0.57%    MPKI:0.00
PC:1227c     Total:139804      MisBP:24   MisRate:0.02%    MPKI:0.00
PC:14bfe     Total:25442      MisBP:26   MisRate:0.10%    MPKI:0.00
PC:29654     Total:4413      MisBP:26   MisRate:0.59%    MPKI:0.00
PC:297a0     Total:29      MisBP:27   MisRate:93.10%    MPKI:0.00
PC:293c4     Total:345      MisBP:28   MisRate:8.12%    MPKI:0.00
PC:11e2a     Total:65      MisBP:30   MisRate:46.15%    MPKI:0.00
PC:18e16     Total:7392      MisBP:31   MisRate:0.42%    MPKI:0.00
PC:18e28     Total:1017      MisBP:31   MisRate:3.05%    MPKI:0.00
PC:18c2e     Total:11740      MisBP:32   MisRate:0.27%    MPKI:0.00
PC:12eae     Total:115      MisBP:40   MisRate:34.78%    MPKI:0.00
PC:12eda     Total:621      MisBP:42   MisRate:6.76%    MPKI:0.00
PC:166e2     Total:960      MisBP:44   MisRate:4.58%    MPKI:0.00
PC:18bf8     Total:11897      MisBP:44   MisRate:0.37%    MPKI:0.00
PC:12180     Total:1027      MisBP:44   MisRate:4.28%    MPKI:0.00
PC:29804     Total:101      MisBP:44   MisRate:43.56%    MPKI:0.00
PC:18c4e     Total:517      MisBP:45   MisRate:8.70%    MPKI:0.00
PC:1414a     Total:442      MisBP:49   MisRate:11.09%    MPKI:0.00
PC:18b64     Total:10907      MisBP:53   MisRate:0.49%    MPKI:0.00
PC:11e26     Total:3089      MisBP:54   MisRate:1.75%    MPKI:0.00
PC:14bb6     Total:413      MisBP:59   MisRate:14.29%    MPKI:0.00
PC:18de0     Total:7199      MisBP:63   MisRate:0.88%    MPKI:0.00
PC:12182     Total:108      MisBP:64   MisRate:59.26%    MPKI:0.00
PC:18e84     Total:29841      MisBP:69   MisRate:0.23%    MPKI:0.00
PC:16692     Total:1891      MisBP:73   MisRate:3.86%    MPKI:0.00
PC:121dc     Total:851      MisBP:73   MisRate:8.58%    MPKI:0.00
PC:18ca4     Total:9908      MisBP:77   MisRate:0.78%    MPKI:0.00
PC:15440     Total:530      MisBP:80   MisRate:15.09%    MPKI:0.00
PC:18cc4     Total:197      MisBP:84   MisRate:42.64%    MPKI:0.00
PC:11dfc     Total:3003      MisBP:90   MisRate:3.00%    MPKI:0.00
PC:12ea0     Total:352059      MisBP:108   MisRate:0.03%    MPKI:0.00
PC:12224     Total:386      MisBP:110   MisRate:28.50%    MPKI:0.00
PC:166d4     Total:978      MisBP:117   MisRate:11.96%    MPKI:0.00
PC:130c8     Total:273556      MisBP:130   MisRate:0.05%    MPKI:0.00
PC:167cc     Total:863      MisBP:152   MisRate:17.61%    MPKI:0.00
PC:1668c     Total:1838      MisBP:163   MisRate:8.87%    MPKI:0.00
PC:1221c     Total:599431      MisBP:168   MisRate:0.03%    MPKI:0.00
PC:11f7a     Total:135568      MisBP:211   MisRate:0.16%    MPKI:0.00
PC:1211e     Total:579520      MisBP:223   MisRate:0.04%    MPKI:0.00
PC:18cd8     Total:44966      MisBP:238   MisRate:0.53%    MPKI:0.00
PC:18c62     Total:55793      MisBP:261   MisRate:0.47%    MPKI:0.00
PC:29454     Total:1344      MisBP:317   MisRate:23.59%    MPKI:0.00
PC:130b6     Total:1319927      MisBP:338   MisRate:0.03%    MPKI:0.00
PC:11e60     Total:94753      MisBP:342   MisRate:0.36%    MPKI:0.00
PC:1207e     Total:96298      MisBP:351   MisRate:0.36%    MPKI:0.00
PC:120ce     Total:67238      MisBP:352   MisRate:0.52%    MPKI:0.00
PC:167e4     Total:4355      MisBP:461   MisRate:10.59%    MPKI:0.00
PC:121ae     Total:70747      MisBP:465   MisRate:0.66%    MPKI:0.00
PC:167b8     Total:4143      MisBP:483   MisRate:11.66%    MPKI:0.00
PC:12d9c     Total:72912      MisBP:502   MisRate:0.69%    MPKI:0.00
PC:18d84     Total:5324      MisBP:516   MisRate:9.69%    MPKI:0.00
PC:12da0     Total:24225      MisBP:588   MisRate:2.43%    MPKI:0.00
PC:12178     Total:668362      MisBP:607   MisRate:0.09%    MPKI:0.00
PC:18cfe     Total:42674      MisBP:687   MisRate:1.61%    MPKI:0.00
PC:11e18     Total:5393      MisBP:711   MisRate:13.18%    MPKI:0.00
PC:18bce     Total:11991      MisBP:834   MisRate:6.96%    MPKI:0.00
PC:18b5a     Total:10522      MisBP:1269   MisRate:12.06%    MPKI:0.00
PC:11e7e     Total:48268      MisBP:1727   MisRate:3.58%    MPKI:0.01
PC:18d68     Total:10094      MisBP:1754   MisRate:17.38%    MPKI:0.01
PC:18c88     Total:50436      MisBP:2324   MisRate:4.61%    MPKI:0.01
PC:11ae6     Total:217346      MisBP:3786   MisRate:1.74%    MPKI:0.01
PC:18c5a     Total:47725      MisBP:4000   MisRate:8.38%    MPKI:0.01
PC:11aee     Total:201073      MisBP:4040   MisRate:2.01%    MPKI:0.01
PC:18cd0     Total:41743      MisBP:4191   MisRate:10.04%    MPKI:0.01
PC:123d8     Total:85515      MisBP:4531   MisRate:5.30%    MPKI:0.01
PC:11ada     Total:225204      MisBP:4730   MisRate:2.10%    MPKI:0.02
PC:18bec     Total:66245      MisBP:5075   MisRate:7.66%    MPKI:0.02
PC:12476     Total:31591      MisBP:5150   MisRate:16.30%    MPKI:0.02
PC:11ad0     Total:252248      MisBP:5165   MisRate:2.05%    MPKI:0.02
PC:11f64     Total:47186      MisBP:5241   MisRate:11.11%    MPKI:0.02
PC:12430     Total:28742      MisBP:5464   MisRate:19.01%    MPKI:0.02
PC:16740     Total:24464      MisBP:5659   MisRate:23.13%    MPKI:0.02
PC:18dd0     Total:212493      MisBP:5721   MisRate:2.69%    MPKI:0.02
PC:11ac4     Total:264401      MisBP:5882   MisRate:2.22%    MPKI:0.02
PC:123f8     Total:32298      MisBP:6018   MisRate:18.63%    MPKI:0.02
PC:165e6     Total:28995      MisBP:6294   MisRate:21.71%    MPKI:0.02
PC:13086     Total:1110888      MisBP:6663   MisRate:0.60%    MPKI:0.02
PC:11e6a     Total:94659      MisBP:6895   MisRate:7.28%    MPKI:0.02
PC:11aae     Total:330036      MisBP:7353   MisRate:2.23%    MPKI:0.02
PC:11aa4     Total:344435      MisBP:7513   MisRate:2.18%    MPKI:0.02
PC:16752     Total:40790      MisBP:7747   MisRate:18.99%    MPKI:0.02
PC:11aba     Total:308930      MisBP:7865   MisRate:2.55%    MPKI:0.03
PC:14a5a     Total:820916      MisBP:8680   MisRate:1.06%    MPKI:0.03
PC:11f08     Total:55857      MisBP:9524   MisRate:17.05%    MPKI:0.03
PC:11a8e     Total:407363      MisBP:9698   MisRate:2.38%    MPKI:0.03
PC:124aa     Total:35375      MisBP:9701   MisRate:27.42%    MPKI:0.03
PC:165f8     Total:124203      MisBP:10064   MisRate:8.10%    MPKI:0.03
PC:11a98     Total:385684      MisBP:10131   MisRate:2.63%    MPKI:0.03
PC:12242     Total:75624      MisBP:11096   MisRate:14.67%    MPKI:0.04
PC:11a5e     Total:564498      MisBP:11868   MisRate:2.10%    MPKI:0.04
PC:11a78     Total:474215      MisBP:11907   MisRate:2.51%    MPKI:0.04
PC:11a82     Total:451781      MisBP:13501   MisRate:2.99%    MPKI:0.04
PC:11a6c     Total:548329      MisBP:17263   MisRate:3.15%    MPKI:0.06
PC:12418     Total:424293      MisBP:18011   MisRate:4.24%    MPKI:0.06
PC:12030     Total:2302407      MisBP:20304   MisRate:0.88%    MPKI:0.07
PC:11a3a     Total:771412      MisBP:21657   MisRate:2.81%    MPKI:0.07
PC:12454     Total:350522      MisBP:21839   MisRate:6.23%    MPKI:0.07
PC:11a20     Total:631863      MisBP:22863   MisRate:3.62%    MPKI:0.07
PC:11ec8     Total:116063      MisBP:23089   MisRate:19.89%    MPKI:0.07
PC:11a28     Total:623660      MisBP:24061   MisRate:3.86%    MPKI:0.08
PC:12d8a     Total:332849      MisBP:26434   MisRate:7.94%    MPKI:0.09
PC:150d8     Total:215049      MisBP:26694   MisRate:12.41%    MPKI:0.09
PC:123ba     Total:264891      MisBP:26909   MisRate:10.16%    MPKI:0.09
PC:1234a     Total:386828      MisBP:27912   MisRate:7.22%    MPKI:0.09
PC:11a4a     Total:716339      MisBP:27936   MisRate:3.90%    MPKI:0.09
PC:122f2     Total:476565      MisBP:28356   MisRate:5.95%    MPKI:0.09
PC:1546e     Total:339233      MisBP:29409   MisRate:8.67%    MPKI:0.09
PC:15402     Total:383238      MisBP:29464   MisRate:7.69%    MPKI:0.10
PC:11f5c     Total:2912757      MisBP:31094   MisRate:1.07%    MPKI:0.10
PC:1236c     Total:473326      MisBP:31679   MisRate:6.69%    MPKI:0.10
PC:122be     Total:413890      MisBP:33639   MisRate:8.13%    MPKI:0.11
PC:11a04     Total:694071      MisBP:34418   MisRate:4.96%    MPKI:0.11
PC:12102     Total:551271      MisBP:36857   MisRate:6.69%    MPKI:0.12
PC:123c4     Total:95123      MisBP:38136   MisRate:40.09%    MPKI:0.12
PC:12314     Total:510263      MisBP:38755   MisRate:7.60%    MPKI:0.13
PC:11a0c     Total:668360      MisBP:49879   MisRate:7.46%    MPKI:0.16
PC:1215e     Total:642372      MisBP:50085   MisRate:7.80%    MPKI:0.16
PC:119fc     Total:771527      MisBP:50698   MisRate:6.57%    MPKI:0.16
PC:119f4     Total:798416      MisBP:55734   MisRate:6.98%    MPKI:0.18
PC:150e2     Total:403558      MisBP:60159   MisRate:14.91%    MPKI:0.19
PC:119e4     Total:926407      MisBP:65127   MisRate:7.03%    MPKI:0.21
PC:12250     Total:392756      MisBP:66678   MisRate:16.98%    MPKI:0.22
PC:130c2     Total:1313451      MisBP:74491   MisRate:5.67%    MPKI:0.24
PC:1508e     Total:363125      MisBP:78960   MisRate:21.74%    MPKI:0.25
PC:119dc     Total:1051909      MisBP:134275   MisRate:12.76%    MPKI:0.43
PC:1238c     Total:613336      MisBP:136360   MisRate:22.23%    MPKI:0.44
PC:12334     Total:722975      MisBP:151814   MisRate:21.00%    MPKI:0.49
PC:12014     Total:1227958      MisBP:156959   MisRate:12.78%    MPKI:0.51
PC:150f4     Total:6281043      MisBP:161011   MisRate:2.56%    MPKI:0.52
PC:122dc     Total:659996      MisBP:161229   MisRate:24.43%    MPKI:0.52
PC:119ec     Total:866006      MisBP:165106   MisRate:19.07%    MPKI:0.53
PC:12042     Total:1663671      MisBP:179060   MisRate:10.76%    MPKI:0.58
PC:1508c     Total:1223288      MisBP:189640   MisRate:15.50%    MPKI:0.61
PC:119d4     Total:1164502      MisBP:191408   MisRate:16.44%    MPKI:0.62
PC:119cc     Total:1442782      MisBP:245993   MisRate:17.05%    MPKI:0.79
PC:119b6     Total:2155479      MisBP:250316   MisRate:11.61%    MPKI:0.81
PC:11f40     Total:2602191      MisBP:266402   MisRate:10.24%    MPKI:0.86
PC:12040     Total:2432766      MisBP:314197   MisRate:12.92%    MPKI:1.01
PC:14a2e     Total:1597266      MisBP:332455   MisRate:20.81%    MPKI:1.07
Totfetch:584278737  TotInsts:310000005  TotMis : inf%   MPKI : 14.43
=============finish sim!!!!!!=============
Done running SimPoint!
