Global frequency set at 1000000000000 ticks per second
 Register [printBranch()] ExitCallback !!!!!!! 
gem5 Simulator System.  https://www.gem5.org
gem5 is copyrighted software; use the --copyright option for details.

gem5 version 22.0.0.2
gem5 compiled Sep  7 2022 00:42:18
gem5 started Sep  7 2022 05:08:41
gem5 executing on a100, pid 2799007
command line: /data/zxf/gem5/gem5-prof/build/ARM/gem5.fast --outdir=/data/zxf/checkpoint/spec2006/471.omnetpp/prof/omnetpp_ckp_10 /data/zxf/gem5/gem5-prof/configs/example/se.py --cpu-type O3CPU --cpu-clock 1GHz --num-cpu 1 --l1d-hwp-type=BOPPrefetcher --caches --l2cache --l1i_size 32kB --l1d_size 32kB --l2_size 1MB --l1i_assoc 8 --l1d_assoc 8 --l2_assoc 16 --cacheline_size 64 --mem-type DDR3_2133_8x8 --mem-size 16GB --restore-simpoint-checkpoint -r 10 --checkpoint-dir /data/zxf/checkpoint/spec2006/471.omnetpp/ckpt -c omnetpp_base.gcc41-64bit -o omnetpp.ini

info: Standard input is not a terminal, disabling listeners.
Resuming from /data/zxf/checkpoint/spec2006/471.omnetpp/ckpt/cpt.simpoint_09_inst_355790000000_weight_0.457245_interval_300000000_warmup_10000000
Resuming from SimPoint #9, start_inst:355790000000, weight:0.457245, interval:300000000, warmup:10000000
Switch at curTick count:10000
Switched CPUS @ tick 229903815725500
[(<m5.objects.ArmCPU.ArmAtomicSimpleCPU object at 0x7f332cd5c940>, <m5.objects.ArmCPU.ArmO3CPU object at 0x7f332cd74dc0>)]
switching cpus



+++++++++++++++++++++++++zxf print simpoint+++++++++++++++++++++++++++
Warmed up! Dumping and resetting stats!


=============start sim!!!!!!=============
PC:2d7ff78     Total:1      MisBP:0   MisRate:0.00%    MPKI:0.00
PC:29f8b04     Total:53      MisBP:0   MisRate:0.00%    MPKI:0.00
PC:29f8b08     Total:53      MisBP:0   MisRate:0.00%    MPKI:0.00
PC:29f8b0c     Total:53      MisBP:0   MisRate:0.00%    MPKI:0.00
PC:29f8b10     Total:53      MisBP:0   MisRate:0.00%    MPKI:0.00
PC:29f8b14     Total:53      MisBP:0   MisRate:0.00%    MPKI:0.00
PC:29f8b18     Total:424      MisBP:0   MisRate:0.00%    MPKI:0.00
PC:29f8b1c     Total:53      MisBP:0   MisRate:0.00%    MPKI:0.00
PC:29f8b20     Total:53      MisBP:0   MisRate:0.00%    MPKI:0.00
PC:29f8b24     Total:53      MisBP:0   MisRate:0.00%    MPKI:0.00
PC:29f8b28     Total:53      MisBP:0   MisRate:0.00%    MPKI:0.00
PC:2d7ff70     Total:1      MisBP:0   MisRate:0.00%    MPKI:0.00
PC:29f8b2c     Total:53      MisBP:0   MisRate:0.00%    MPKI:0.00
PC:2d7ff74     Total:2      MisBP:0   MisRate:0.00%    MPKI:0.00
PC:29f8b30     Total:53      MisBP:0   MisRate:0.00%    MPKI:0.00
PC:29f8b00     Total:53      MisBP:0   MisRate:0.00%    MPKI:0.00
PC:29f8b34     Total:53      MisBP:0   MisRate:0.00%    MPKI:0.00
PC:2d7ff7c     Total:1      MisBP:0   MisRate:0.00%    MPKI:0.00
PC:29f8b38     Total:53      MisBP:0   MisRate:0.00%    MPKI:0.00
PC:2d7ff80     Total:1      MisBP:0   MisRate:0.00%    MPKI:0.00
PC:29f8b3c     Total:53      MisBP:0   MisRate:0.00%    MPKI:0.00
PC:2d7ff84     Total:1      MisBP:0   MisRate:0.00%    MPKI:0.00
PC:29f8b40     Total:48      MisBP:0   MisRate:0.00%    MPKI:0.00
PC:2d7ff88     Total:1      MisBP:0   MisRate:0.00%    MPKI:0.00
PC:29f8b44     Total:48      MisBP:0   MisRate:0.00%    MPKI:0.00
PC:2d7ff8c     Total:2      MisBP:0   MisRate:0.00%    MPKI:0.00
PC:29f8b48     Total:48      MisBP:0   MisRate:0.00%    MPKI:0.00
PC:2d7ff90     Total:1      MisBP:0   MisRate:0.00%    MPKI:0.00
PC:29f8b4c     Total:48      MisBP:0   MisRate:0.00%    MPKI:0.00
PC:29b5e5c     Total:13      MisBP:0   MisRate:0.00%    MPKI:0.00
PC:29b5e34     Total:41      MisBP:0   MisRate:0.00%    MPKI:0.00
PC:bbaaa     Total:2      MisBP:0   MisRate:0.00%    MPKI:0.00
PC:29b5e38     Total:41      MisBP:0   MisRate:0.00%    MPKI:0.00
PC:bbaae     Total:2      MisBP:0   MisRate:0.00%    MPKI:0.00
PC:29b5e3c     Total:41      MisBP:0   MisRate:0.00%    MPKI:0.00
PC:29b5e40     Total:36      MisBP:0   MisRate:0.00%    MPKI:0.00
PC:bbab6     Total:2      MisBP:0   MisRate:0.00%    MPKI:0.00
PC:29b5e44     Total:36      MisBP:0   MisRate:0.00%    MPKI:0.00
PC:29b5e48     Total:36      MisBP:0   MisRate:0.00%    MPKI:0.00
PC:29b5e4c     Total:36      MisBP:0   MisRate:0.00%    MPKI:0.00
PC:29b5e50     Total:72      MisBP:0   MisRate:0.00%    MPKI:0.00
PC:29b5e54     Total:72      MisBP:0   MisRate:0.00%    MPKI:0.00
PC:29b5e58     Total:13      MisBP:0   MisRate:0.00%    MPKI:0.00
PC:2d7ff94     Total:1      MisBP:0   MisRate:0.00%    MPKI:0.00
PC:29b5e60     Total:13      MisBP:0   MisRate:0.00%    MPKI:0.00
PC:29b5e64     Total:13      MisBP:0   MisRate:0.00%    MPKI:0.00
PC:64e2060     Total:1      MisBP:0   MisRate:0.00%    MPKI:0.00
PC:29b5e68     Total:13      MisBP:0   MisRate:0.00%    MPKI:0.00
PC:64e206c     Total:1      MisBP:0   MisRate:0.00%    MPKI:0.00
PC:29b5e74     Total:13      MisBP:0   MisRate:0.00%    MPKI:0.00
PC:29f8ae4     Total:58      MisBP:0   MisRate:0.00%    MPKI:0.00
PC:29f8ae8     Total:58      MisBP:0   MisRate:0.00%    MPKI:0.00
PC:29f8aec     Total:58      MisBP:0   MisRate:0.00%    MPKI:0.00
PC:29f8af0     Total:58      MisBP:0   MisRate:0.00%    MPKI:0.00
PC:29f8af4     Total:58      MisBP:0   MisRate:0.00%    MPKI:0.00
PC:29f8af8     Total:58      MisBP:0   MisRate:0.00%    MPKI:0.00
PC:29f8afc     Total:58      MisBP:0   MisRate:0.00%    MPKI:0.00
PC:6524da0     Total:1      MisBP:0   MisRate:0.00%    MPKI:0.00
PC:29f8b7c     Total:48      MisBP:0   MisRate:0.00%    MPKI:0.00
PC:29f8b80     Total:43      MisBP:0   MisRate:0.00%    MPKI:0.00
PC:29f8b84     Total:43      MisBP:0   MisRate:0.00%    MPKI:0.00
PC:29f8b88     Total:43      MisBP:0   MisRate:0.00%    MPKI:0.00
PC:29f8b8c     Total:43      MisBP:0   MisRate:0.00%    MPKI:0.00
PC:29f8b90     Total:43      MisBP:0   MisRate:0.00%    MPKI:0.00
PC:29f8b94     Total:43      MisBP:0   MisRate:0.00%    MPKI:0.00
PC:29f8b98     Total:43      MisBP:0   MisRate:0.00%    MPKI:0.00
PC:29f8b9c     Total:43      MisBP:0   MisRate:0.00%    MPKI:0.00
PC:6524d98     Total:1      MisBP:0   MisRate:0.00%    MPKI:0.00
PC:29f8ba0     Total:43      MisBP:0   MisRate:0.00%    MPKI:0.00
PC:6524d9c     Total:1      MisBP:0   MisRate:0.00%    MPKI:0.00
PC:29f8ba4     Total:43      MisBP:0   MisRate:0.00%    MPKI:0.00
PC:29f8b78     Total:87      MisBP:0   MisRate:0.00%    MPKI:0.00
PC:29f8ba8     Total:43      MisBP:0   MisRate:0.00%    MPKI:0.00
PC:6524da4     Total:1      MisBP:0   MisRate:0.00%    MPKI:0.00
PC:29f8bac     Total:43      MisBP:0   MisRate:0.00%    MPKI:0.00
PC:6524da8     Total:1      MisBP:0   MisRate:0.00%    MPKI:0.00
PC:29f8bb0     Total:43      MisBP:0   MisRate:0.00%    MPKI:0.00
PC:6524dac     Total:2      MisBP:0   MisRate:0.00%    MPKI:0.00
PC:29f8bb4     Total:43      MisBP:0   MisRate:0.00%    MPKI:0.00
PC:6524db0     Total:2      MisBP:0   MisRate:0.00%    MPKI:0.00
PC:29f8bb8     Total:86      MisBP:0   MisRate:0.00%    MPKI:0.00
PC:6524db4     Total:3      MisBP:0   MisRate:0.00%    MPKI:0.00
PC:29f8bbc     Total:86      MisBP:0   MisRate:0.00%    MPKI:0.00
PC:6524db8     Total:1      MisBP:0   MisRate:0.00%    MPKI:0.00
PC:29f8bc0     Total:43      MisBP:0   MisRate:0.00%    MPKI:0.00
PC:670bf20     Total:1      MisBP:0   MisRate:0.00%    MPKI:0.00
PC:29f8b50     Total:48      MisBP:0   MisRate:0.00%    MPKI:0.00
PC:2d7ff98     Total:1      MisBP:0   MisRate:0.00%    MPKI:0.00
PC:29f8b54     Total:48      MisBP:0   MisRate:0.00%    MPKI:0.00
PC:2d7ff9c     Total:1      MisBP:0   MisRate:0.00%    MPKI:0.00
PC:29f8b58     Total:48      MisBP:0   MisRate:0.00%    MPKI:0.00
PC:2d7ffa0     Total:1      MisBP:0   MisRate:0.00%    MPKI:0.00
PC:29f8b5c     Total:48      MisBP:0   MisRate:0.00%    MPKI:0.00
PC:670bf18     Total:1      MisBP:0   MisRate:0.00%    MPKI:0.00
PC:2d7ffa4     Total:2      MisBP:0   MisRate:0.00%    MPKI:0.00
PC:29f8b60     Total:48      MisBP:0   MisRate:0.00%    MPKI:0.00
PC:670bf1c     Total:1      MisBP:0   MisRate:0.00%    MPKI:0.00
PC:2d7ffa8     Total:2      MisBP:0   MisRate:0.00%    MPKI:0.00
PC:29f8b64     Total:48      MisBP:0   MisRate:0.00%    MPKI:0.00
PC:bbaa6     Total:2      MisBP:0   MisRate:0.00%    MPKI:0.00
PC:2d7ffac     Total:2      MisBP:0   MisRate:0.00%    MPKI:0.00
PC:29f8b68     Total:48      MisBP:0   MisRate:0.00%    MPKI:0.00
PC:670bf24     Total:1      MisBP:0   MisRate:0.00%    MPKI:0.00
PC:2d7ffb0     Total:2      MisBP:0   MisRate:0.00%    MPKI:0.00
PC:29f8b6c     Total:48      MisBP:0   MisRate:0.00%    MPKI:0.00
PC:670bf28     Total:1      MisBP:0   MisRate:0.00%    MPKI:0.00
PC:2d7ffb4     Total:2      MisBP:0   MisRate:0.00%    MPKI:0.00
PC:29f8b70     Total:48      MisBP:0   MisRate:0.00%    MPKI:0.00
PC:670bf2c     Total:2      MisBP:0   MisRate:0.00%    MPKI:0.00
PC:2d7ffb8     Total:2      MisBP:0   MisRate:0.00%    MPKI:0.00
PC:29f8b74     Total:48      MisBP:0   MisRate:0.00%    MPKI:0.00
PC:670bf30     Total:1      MisBP:0   MisRate:0.00%    MPKI:0.00
PC:2d7ffbc     Total:1      MisBP:0   MisRate:0.00%    MPKI:0.00
PC:7a2f4c     Total:11      MisBP:0   MisRate:0.00%    MPKI:0.00
PC:291c158     Total:72      MisBP:0   MisRate:0.00%    MPKI:0.00
PC:3068ca4     Total:27      MisBP:0   MisRate:0.00%    MPKI:0.00
PC:4a6b4e4     Total:1      MisBP:0   MisRate:0.00%    MPKI:0.00
PC:660dfa8     Total:1      MisBP:0   MisRate:0.00%    MPKI:0.00
PC:5ad3f20     Total:2      MisBP:0   MisRate:0.00%    MPKI:0.00
PC:a7416     Total:2      MisBP:0   MisRate:0.00%    MPKI:0.00
PC:6353ffc     Total:1      MisBP:0   MisRate:0.00%    MPKI:0.00
PC:291c15c     Total:72      MisBP:0   MisRate:0.00%    MPKI:0.00
PC:3068ca8     Total:27      MisBP:0   MisRate:0.00%    MPKI:0.00
PC:4a6b4e8     Total:1      MisBP:0   MisRate:0.00%    MPKI:0.00
PC:660dfac     Total:1      MisBP:0   MisRate:0.00%    MPKI:0.00
PC:5ad3f24     Total:2      MisBP:0   MisRate:0.00%    MPKI:0.00
PC:a741a     Total:2      MisBP:0   MisRate:0.00%    MPKI:0.00
PC:6354000     Total:1      MisBP:0   MisRate:0.00%    MPKI:0.00
PC:6353ff8     Total:1      MisBP:0   MisRate:0.00%    MPKI:0.00
PC:297306c     Total:56      MisBP:0   MisRate:0.00%    MPKI:0.00
PC:7a2f50     Total:11      MisBP:0   MisRate:0.00%    MPKI:0.00
PC:2973070     Total:56      MisBP:0   MisRate:0.00%    MPKI:0.00
PC:7a2fd4     Total:9      MisBP:0   MisRate:0.00%    MPKI:0.00
PC:29730f4     Total:92      MisBP:0   MisRate:0.00%    MPKI:0.00
PC:7a2fd8     Total:9      MisBP:0   MisRate:0.00%    MPKI:0.00
PC:29730f8     Total:92      MisBP:0   MisRate:0.00%    MPKI:0.00
PC:7a2fdc     Total:9      MisBP:0   MisRate:0.00%    MPKI:0.00
PC:29730fc     Total:46      MisBP:0   MisRate:0.00%    MPKI:0.00
PC:7a2fe0     Total:9      MisBP:0   MisRate:0.00%    MPKI:0.00
PC:2973100     Total:46      MisBP:0   MisRate:0.00%    MPKI:0.00
PC:7a2fe4     Total:9      MisBP:0   MisRate:0.00%    MPKI:0.00
PC:2973104     Total:92      MisBP:0   MisRate:0.00%    MPKI:0.00
PC:5ad3f14     Total:2      MisBP:0   MisRate:0.00%    MPKI:0.00
PC:5ad3f0c     Total:4      MisBP:0   MisRate:0.00%    MPKI:0.00
PC:6353fe8     Total:1      MisBP:0   MisRate:0.00%    MPKI:0.00
PC:291c148     Total:36      MisBP:0   MisRate:0.00%    MPKI:0.00
PC:3068c94     Total:27      MisBP:0   MisRate:0.00%    MPKI:0.00
PC:4a6b4d4     Total:1      MisBP:0   MisRate:0.00%    MPKI:0.00
PC:660df98     Total:1      MisBP:0   MisRate:0.00%    MPKI:0.00
PC:5ad3f10     Total:2      MisBP:0   MisRate:0.00%    MPKI:0.00
PC:a7406     Total:2      MisBP:0   MisRate:0.00%    MPKI:0.00
PC:6353fec     Total:2      MisBP:0   MisRate:0.00%    MPKI:0.00
PC:291c14c     Total:36      MisBP:0   MisRate:0.00%    MPKI:0.00
PC:3068c98     Total:27      MisBP:0   MisRate:0.00%    MPKI:0.00
PC:4a6b4d8     Total:2      MisBP:0   MisRate:0.00%    MPKI:0.00
PC:660df9c     Total:2      MisBP:0   MisRate:0.00%    MPKI:0.00
PC:7a2fe8     Total:9      MisBP:0   MisRate:0.00%    MPKI:0.00
PC:a740a     Total:2      MisBP:0   MisRate:0.00%    MPKI:0.00
PC:6353ff0     Total:1      MisBP:0   MisRate:0.00%    MPKI:0.00
PC:291c150     Total:36      MisBP:0   MisRate:0.00%    MPKI:0.00
PC:3068c9c     Total:27      MisBP:0   MisRate:0.00%    MPKI:0.00
PC:4a6b4dc     Total:2      MisBP:0   MisRate:0.00%    MPKI:0.00
PC:660dfa0     Total:2      MisBP:0   MisRate:0.00%    MPKI:0.00
PC:5ad3f18     Total:2      MisBP:0   MisRate:0.00%    MPKI:0.00
PC:6353ff4     Total:1      MisBP:0   MisRate:0.00%    MPKI:0.00
PC:291c154     Total:36      MisBP:0   MisRate:0.00%    MPKI:0.00
PC:3068ca0     Total:216      MisBP:0   MisRate:0.00%    MPKI:0.00
PC:4a6b4e0     Total:1      MisBP:0   MisRate:0.00%    MPKI:0.00
PC:660dfa4     Total:3      MisBP:0   MisRate:0.00%    MPKI:0.00
PC:5ad3f1c     Total:4      MisBP:0   MisRate:0.00%    MPKI:0.00
PC:29b5e04     Total:41      MisBP:0   MisRate:0.00%    MPKI:0.00
PC:29b5dd0     Total:45      MisBP:0   MisRate:0.00%    MPKI:0.00
PC:29b5dd4     Total:45      MisBP:0   MisRate:0.00%    MPKI:0.00
PC:29b5dd8     Total:45      MisBP:0   MisRate:0.00%    MPKI:0.00
PC:29b5ddc     Total:45      MisBP:0   MisRate:0.00%    MPKI:0.00
PC:29b5de0     Total:45      MisBP:0   MisRate:0.00%    MPKI:0.00
PC:29b5de4     Total:45      MisBP:0   MisRate:0.00%    MPKI:0.00
PC:29b5de8     Total:45      MisBP:0   MisRate:0.00%    MPKI:0.00
PC:29b5dec     Total:45      MisBP:0   MisRate:0.00%    MPKI:0.00
PC:29b5df0     Total:45      MisBP:0   MisRate:0.00%    MPKI:0.00
PC:29b5df4     Total:45      MisBP:0   MisRate:0.00%    MPKI:0.00
PC:29b5df8     Total:45      MisBP:0   MisRate:0.00%    MPKI:0.00
PC:29b5dfc     Total:45      MisBP:0   MisRate:0.00%    MPKI:0.00
PC:29b5e00     Total:41      MisBP:0   MisRate:0.00%    MPKI:0.00
PC:29b5dcc     Total:45      MisBP:0   MisRate:0.00%    MPKI:0.00
PC:29b5e08     Total:41      MisBP:0   MisRate:0.00%    MPKI:0.00
PC:29b5e0c     Total:41      MisBP:0   MisRate:0.00%    MPKI:0.00
PC:29b5e10     Total:41      MisBP:0   MisRate:0.00%    MPKI:0.00
PC:29b5e14     Total:41      MisBP:0   MisRate:0.00%    MPKI:0.00
PC:29b5e18     Total:41      MisBP:0   MisRate:0.00%    MPKI:0.00
PC:29b5e1c     Total:41      MisBP:0   MisRate:0.00%    MPKI:0.00
PC:29b5e20     Total:41      MisBP:0   MisRate:0.00%    MPKI:0.00
PC:29b5e24     Total:41      MisBP:0   MisRate:0.00%    MPKI:0.00
PC:bba9a     Total:2      MisBP:0   MisRate:0.00%    MPKI:0.00
PC:29b5e28     Total:41      MisBP:0   MisRate:0.00%    MPKI:0.00
PC:bba9e     Total:2      MisBP:0   MisRate:0.00%    MPKI:0.00
PC:29b5e2c     Total:41      MisBP:0   MisRate:0.00%    MPKI:0.00
PC:29b5e30     Total:41      MisBP:0   MisRate:0.00%    MPKI:0.00
PC:29b5d94     Total:50      MisBP:0   MisRate:0.00%    MPKI:0.00
PC:2973108     Total:46      MisBP:0   MisRate:0.00%    MPKI:0.00
PC:7a3000     Total:9      MisBP:0   MisRate:0.00%    MPKI:0.00
PC:2973120     Total:14      MisBP:0   MisRate:0.00%    MPKI:0.00
PC:7a3004     Total:9      MisBP:0   MisRate:0.00%    MPKI:0.00
PC:2973124     Total:14      MisBP:0   MisRate:0.00%    MPKI:0.00
PC:7a3008     Total:18      MisBP:0   MisRate:0.00%    MPKI:0.00
PC:2973128     Total:14      MisBP:0   MisRate:0.00%    MPKI:0.00
PC:29b5d7c     Total:54      MisBP:0   MisRate:0.00%    MPKI:0.00
PC:29b5d80     Total:50      MisBP:0   MisRate:0.00%    MPKI:0.00
PC:29b5d84     Total:50      MisBP:0   MisRate:0.00%    MPKI:0.00
PC:29b5d88     Total:50      MisBP:0   MisRate:0.00%    MPKI:0.00
PC:29b5d8c     Total:50      MisBP:0   MisRate:0.00%    MPKI:0.00
PC:29b5d90     Total:50      MisBP:0   MisRate:0.00%    MPKI:0.00
PC:6524dbc     Total:2      MisBP:0   MisRate:0.00%    MPKI:0.00
PC:29b5d98     Total:50      MisBP:0   MisRate:0.00%    MPKI:0.00
PC:29b5d9c     Total:50      MisBP:0   MisRate:0.00%    MPKI:0.00
PC:29b5da0     Total:50      MisBP:0   MisRate:0.00%    MPKI:0.00
PC:29b5da4     Total:50      MisBP:0   MisRate:0.00%    MPKI:0.00
PC:29b5da8     Total:50      MisBP:0   MisRate:0.00%    MPKI:0.00
PC:29b5dac     Total:50      MisBP:0   MisRate:0.00%    MPKI:0.00
PC:29b5db0     Total:400      MisBP:0   MisRate:0.00%    MPKI:0.00
PC:29b5db4     Total:50      MisBP:0   MisRate:0.00%    MPKI:0.00
PC:29b5db8     Total:50      MisBP:0   MisRate:0.00%    MPKI:0.00
PC:29b5dbc     Total:50      MisBP:0   MisRate:0.00%    MPKI:0.00
PC:29b5dc0     Total:45      MisBP:0   MisRate:0.00%    MPKI:0.00
PC:29b5dc4     Total:45      MisBP:0   MisRate:0.00%    MPKI:0.00
PC:29b5dc8     Total:45      MisBP:0   MisRate:0.00%    MPKI:0.00
PC:2a3b9a0     Total:38      MisBP:0   MisRate:0.00%    MPKI:0.00
PC:16d3628     Total:1      MisBP:0   MisRate:0.00%    MPKI:0.00
PC:638e018     Total:1      MisBP:0   MisRate:0.00%    MPKI:0.00
PC:22daf2c     Total:35      MisBP:0   MisRate:0.00%    MPKI:0.00
PC:3209278     Total:16      MisBP:0   MisRate:0.00%    MPKI:0.00
PC:2a3b998     Total:76      MisBP:0   MisRate:0.00%    MPKI:0.00
PC:644a750     Total:2      MisBP:0   MisRate:0.00%    MPKI:0.00
PC:16d362c     Total:1      MisBP:0   MisRate:0.00%    MPKI:0.00
PC:22daf30     Total:35      MisBP:0   MisRate:0.00%    MPKI:0.00
PC:320927c     Total:16      MisBP:0   MisRate:0.00%    MPKI:0.00
PC:2a3b99c     Total:76      MisBP:0   MisRate:0.00%    MPKI:0.00
PC:644a754     Total:4      MisBP:0   MisRate:0.00%    MPKI:0.00
PC:16d3630     Total:1      MisBP:0   MisRate:0.00%    MPKI:0.00
PC:22daf34     Total:35      MisBP:0   MisRate:0.00%    MPKI:0.00
PC:3209280     Total:8      MisBP:0   MisRate:0.00%    MPKI:0.00
PC:644a74c     Total:2      MisBP:0   MisRate:0.00%    MPKI:0.00
PC:644a758     Total:2      MisBP:0   MisRate:0.00%    MPKI:0.00
PC:16d3634     Total:1      MisBP:0   MisRate:0.00%    MPKI:0.00
PC:22daf38     Total:280      MisBP:0   MisRate:0.00%    MPKI:0.00
PC:3209284     Total:8      MisBP:0   MisRate:0.00%    MPKI:0.00
PC:2a3b9a4     Total:38      MisBP:0   MisRate:0.00%    MPKI:0.00
PC:644a75c     Total:2      MisBP:0   MisRate:0.00%    MPKI:0.00
PC:16d3638     Total:1      MisBP:0   MisRate:0.00%    MPKI:0.00
PC:22daf3c     Total:35      MisBP:0   MisRate:0.00%    MPKI:0.00
PC:3209288     Total:8      MisBP:0   MisRate:0.00%    MPKI:0.00
PC:2a3b9a8     Total:76      MisBP:0   MisRate:0.00%    MPKI:0.00
PC:644a760     Total:2      MisBP:0   MisRate:0.00%    MPKI:0.00
PC:16d363c     Total:1      MisBP:0   MisRate:0.00%    MPKI:0.00
PC:22daf40     Total:32      MisBP:0   MisRate:0.00%    MPKI:0.00
PC:644a744     Total:2      MisBP:0   MisRate:0.00%    MPKI:0.00
PC:32176b0     Total:2      MisBP:0   MisRate:0.00%    MPKI:0.00
PC:16d3618     Total:1      MisBP:0   MisRate:0.00%    MPKI:0.00
PC:638e008     Total:1      MisBP:0   MisRate:0.00%    MPKI:0.00
PC:22daf1c     Total:35      MisBP:0   MisRate:0.00%    MPKI:0.00
PC:3209268     Total:16      MisBP:0   MisRate:0.00%    MPKI:0.00
PC:2a3b988     Total:38      MisBP:0   MisRate:0.00%    MPKI:0.00
PC:644a740     Total:2      MisBP:0   MisRate:0.00%    MPKI:0.00
PC:32176b4     Total:2      MisBP:0   MisRate:0.00%    MPKI:0.00
PC:16d361c     Total:1      MisBP:0   MisRate:0.00%    MPKI:0.00
PC:638e00c     Total:9      MisBP:0   MisRate:0.00%    MPKI:0.00
PC:22daf20     Total:35      MisBP:0   MisRate:0.00%    MPKI:0.00
PC:320926c     Total:16      MisBP:0   MisRate:0.00%    MPKI:0.00
PC:2a3b98c     Total:38      MisBP:0   MisRate:0.00%    MPKI:0.00
PC:320928c     Total:8      MisBP:0   MisRate:0.00%    MPKI:0.00
PC:32176b8     Total:2      MisBP:0   MisRate:0.00%    MPKI:0.00
PC:16d3620     Total:1      MisBP:0   MisRate:0.00%    MPKI:0.00
PC:638e010     Total:1      MisBP:0   MisRate:0.00%    MPKI:0.00
PC:22daf24     Total:35      MisBP:0   MisRate:0.00%    MPKI:0.00
PC:3209270     Total:16      MisBP:0   MisRate:0.00%    MPKI:0.00
PC:2a3b990     Total:38      MisBP:0   MisRate:0.00%    MPKI:0.00
PC:644a748     Total:2      MisBP:0   MisRate:0.00%    MPKI:0.00
PC:32176bc     Total:2      MisBP:0   MisRate:0.00%    MPKI:0.00
PC:16d3624     Total:1      MisBP:0   MisRate:0.00%    MPKI:0.00
PC:638e014     Total:1      MisBP:0   MisRate:0.00%    MPKI:0.00
PC:22daf28     Total:35      MisBP:0   MisRate:0.00%    MPKI:0.00
PC:3209274     Total:16      MisBP:0   MisRate:0.00%    MPKI:0.00
PC:2a3b994     Total:38      MisBP:0   MisRate:0.00%    MPKI:0.00
PC:32092ac     Total:8      MisBP:0   MisRate:0.00%    MPKI:0.00
PC:22daf58     Total:32      MisBP:0   MisRate:0.00%    MPKI:0.00
PC:32092a4     Total:8      MisBP:0   MisRate:0.00%    MPKI:0.00
PC:2a3b9c4     Total:38      MisBP:0   MisRate:0.00%    MPKI:0.00
PC:644a77c     Total:2      MisBP:0   MisRate:0.00%    MPKI:0.00
PC:d0b1fc     Total:30      MisBP:0   MisRate:0.00%    MPKI:0.00
PC:16d3658     Total:1      MisBP:0   MisRate:0.00%    MPKI:0.00
PC:22daf5c     Total:32      MisBP:0   MisRate:0.00%    MPKI:0.00
PC:32092a8     Total:8      MisBP:0   MisRate:0.00%    MPKI:0.00
PC:2a3b9c8     Total:32      MisBP:0   MisRate:0.00%    MPKI:0.00
PC:644a780     Total:4      MisBP:0   MisRate:0.00%    MPKI:0.00
PC:d0b200     Total:54      MisBP:0   MisRate:0.00%    MPKI:0.00
PC:16d365c     Total:1      MisBP:0   MisRate:0.00%    MPKI:0.00
PC:22daf60     Total:32      MisBP:0   MisRate:0.00%    MPKI:0.00
PC:16d3654     Total:1      MisBP:0   MisRate:0.00%    MPKI:0.00
PC:2a3b9cc     Total:17      MisBP:0   MisRate:0.00%    MPKI:0.00
PC:644a784     Total:2      MisBP:0   MisRate:0.00%    MPKI:0.00
PC:d0b204     Total:27      MisBP:0   MisRate:0.00%    MPKI:0.00
PC:16d3660     Total:1      MisBP:0   MisRate:0.00%    MPKI:0.00
PC:22daf64     Total:32      MisBP:0   MisRate:0.00%    MPKI:0.00
PC:32092b0     Total:8      MisBP:0   MisRate:0.00%    MPKI:0.00
PC:2a3b9d0     Total:17      MisBP:0   MisRate:0.00%    MPKI:0.00
PC:644a788     Total:2      MisBP:0   MisRate:0.00%    MPKI:0.00
PC:d0b208     Total:27      MisBP:0   MisRate:0.00%    MPKI:0.00
PC:16d3664     Total:1      MisBP:0   MisRate:0.00%    MPKI:0.00
PC:22daf68     Total:32      MisBP:0   MisRate:0.00%    MPKI:0.00
PC:32092b4     Total:8      MisBP:0   MisRate:0.00%    MPKI:0.00
PC:2a3b9d4     Total:17      MisBP:0   MisRate:0.00%    MPKI:0.00
PC:22daf4c     Total:32      MisBP:0   MisRate:0.00%    MPKI:0.00
PC:2a3b9ac     Total:76      MisBP:0   MisRate:0.00%    MPKI:0.00
PC:644a764     Total:2      MisBP:0   MisRate:0.00%    MPKI:0.00
PC:16d3640     Total:1      MisBP:0   MisRate:0.00%    MPKI:0.00
PC:22daf44     Total:32      MisBP:0   MisRate:0.00%    MPKI:0.00
PC:3209290     Total:8      MisBP:0   MisRate:0.00%    MPKI:0.00
PC:2a3b9b0     Total:38      MisBP:0   MisRate:0.00%    MPKI:0.00
PC:644a768     Total:2      MisBP:0   MisRate:0.00%    MPKI:0.00
PC:16d3644     Total:1      MisBP:0   MisRate:0.00%    MPKI:0.00
PC:22daf48     Total:32      MisBP:0   MisRate:0.00%    MPKI:0.00
PC:3209294     Total:8      MisBP:0   MisRate:0.00%    MPKI:0.00
PC:2a3b9b4     Total:76      MisBP:0   MisRate:0.00%    MPKI:0.00
PC:644a76c     Total:2      MisBP:0   MisRate:0.00%    MPKI:0.00
PC:16d3648     Total:1      MisBP:0   MisRate:0.00%    MPKI:0.00
PC:644a73c     Total:2      MisBP:0   MisRate:0.00%    MPKI:0.00
PC:3209298     Total:8      MisBP:0   MisRate:0.00%    MPKI:0.00
PC:2a3b9b8     Total:38      MisBP:0   MisRate:0.00%    MPKI:0.00
PC:644a770     Total:2      MisBP:0   MisRate:0.00%    MPKI:0.00
PC:16d364c     Total:1      MisBP:0   MisRate:0.00%    MPKI:0.00
PC:22daf50     Total:32      MisBP:0   MisRate:0.00%    MPKI:0.00
PC:320929c     Total:8      MisBP:0   MisRate:0.00%    MPKI:0.00
PC:2a3b9bc     Total:38      MisBP:0   MisRate:0.00%    MPKI:0.00
PC:644a774     Total:2      MisBP:0   MisRate:0.00%    MPKI:0.00
PC:16d3650     Total:1      MisBP:0   MisRate:0.00%    MPKI:0.00
PC:22daf54     Total:32      MisBP:0   MisRate:0.00%    MPKI:0.00
PC:32092a0     Total:8      MisBP:0   MisRate:0.00%    MPKI:0.00
PC:2a3b9c0     Total:38      MisBP:0   MisRate:0.00%    MPKI:0.00
PC:644a778     Total:4      MisBP:0   MisRate:0.00%    MPKI:0.00
PC:2a3b94c     Total:43      MisBP:0   MisRate:0.00%    MPKI:0.00
PC:fe5d40     Total:1      MisBP:0   MisRate:0.00%    MPKI:0.00
PC:2a3b934     Total:47      MisBP:0   MisRate:0.00%    MPKI:0.00
PC:fe5d44     Total:1      MisBP:0   MisRate:0.00%    MPKI:0.00
PC:2a3b938     Total:47      MisBP:0   MisRate:0.00%    MPKI:0.00
PC:fe5d48     Total:1      MisBP:0   MisRate:0.00%    MPKI:0.00
PC:2a3b93c     Total:47      MisBP:0   MisRate:0.00%    MPKI:0.00
PC:fe5d4c     Total:1      MisBP:0   MisRate:0.00%    MPKI:0.00
PC:2a3b940     Total:43      MisBP:0   MisRate:0.00%    MPKI:0.00
PC:fe5d50     Total:1      MisBP:0   MisRate:0.00%    MPKI:0.00
PC:2a3b944     Total:43      MisBP:0   MisRate:0.00%    MPKI:0.00
PC:fe5d54     Total:1      MisBP:0   MisRate:0.00%    MPKI:0.00
PC:2a3b948     Total:43      MisBP:0   MisRate:0.00%    MPKI:0.00
PC:fe5d58     Total:1      MisBP:0   MisRate:0.00%    MPKI:0.00
PC:2a3b930     Total:47      MisBP:0   MisRate:0.00%    MPKI:0.00
PC:fe5d5c     Total:1      MisBP:0   MisRate:0.00%    MPKI:0.00
PC:2a3b950     Total:43      MisBP:0   MisRate:0.00%    MPKI:0.00
PC:fe5d60     Total:1      MisBP:0   MisRate:0.00%    MPKI:0.00
PC:4aba0     Total:1044      MisBP:0   MisRate:0.00%    MPKI:0.00
PC:2a3b954     Total:43      MisBP:0   MisRate:0.00%    MPKI:0.00
PC:fe5d64     Total:2      MisBP:0   MisRate:0.00%    MPKI:0.00
PC:2a3b958     Total:50      MisBP:0   MisRate:0.00%    MPKI:0.00
PC:fe5d68     Total:1      MisBP:0   MisRate:0.00%    MPKI:0.00
PC:4aba8     Total:64186      MisBP:0   MisRate:0.00%    MPKI:0.00
PC:2a3b95c     Total:43      MisBP:0   MisRate:0.00%    MPKI:0.00
PC:fe5d6c     Total:1      MisBP:0   MisRate:0.00%    MPKI:0.00
PC:3209240     Total:16      MisBP:0   MisRate:0.00%    MPKI:0.00
PC:4abac     Total:64185      MisBP:0   MisRate:0.00%    MPKI:0.00
PC:6524dd8     Total:1      MisBP:0   MisRate:0.00%    MPKI:0.00
PC:29f8bc4     Total:43      MisBP:0   MisRate:0.00%    MPKI:0.00
PC:6524dc0     Total:2      MisBP:0   MisRate:0.00%    MPKI:0.00
PC:29f8bc8     Total:43      MisBP:0   MisRate:0.00%    MPKI:0.00
PC:6524dc4     Total:2      MisBP:0   MisRate:0.00%    MPKI:0.00
PC:29f8bcc     Total:43      MisBP:0   MisRate:0.00%    MPKI:0.00
PC:6524dc8     Total:1      MisBP:0   MisRate:0.00%    MPKI:0.00
PC:29f8bd0     Total:43      MisBP:0   MisRate:0.00%    MPKI:0.00
PC:6524dcc     Total:1      MisBP:0   MisRate:0.00%    MPKI:0.00
PC:29f8bd4     Total:43      MisBP:0   MisRate:0.00%    MPKI:0.00
PC:6524dd0     Total:1      MisBP:0   MisRate:0.00%    MPKI:0.00
PC:29f8bd8     Total:43      MisBP:0   MisRate:0.00%    MPKI:0.00
PC:6524dd4     Total:2      MisBP:0   MisRate:0.00%    MPKI:0.00
PC:29f8bdc     Total:43      MisBP:0   MisRate:0.00%    MPKI:0.00
PC:2a3b960     Total:43      MisBP:0   MisRate:0.00%    MPKI:0.00
PC:29f8be0     Total:43      MisBP:0   MisRate:0.00%    MPKI:0.00
PC:6524ddc     Total:1      MisBP:0   MisRate:0.00%    MPKI:0.00
PC:29f8be4     Total:43      MisBP:0   MisRate:0.00%    MPKI:0.00
PC:6524de0     Total:1      MisBP:0   MisRate:0.00%    MPKI:0.00
PC:29f8be8     Total:43      MisBP:0   MisRate:0.00%    MPKI:0.00
PC:6524de4     Total:1      MisBP:0   MisRate:0.00%    MPKI:0.00
PC:29f8bec     Total:43      MisBP:0   MisRate:0.00%    MPKI:0.00
PC:6524de8     Total:1      MisBP:0   MisRate:0.00%    MPKI:0.00
PC:29f8bf0     Total:43      MisBP:0   MisRate:0.00%    MPKI:0.00
PC:6524dec     Total:1      MisBP:0   MisRate:0.00%    MPKI:0.00
PC:29f8bf4     Total:27      MisBP:0   MisRate:0.00%    MPKI:0.00
PC:2a3b928     Total:47      MisBP:0   MisRate:0.00%    MPKI:0.00
PC:2a3b92c     Total:47      MisBP:0   MisRate:0.00%    MPKI:0.00
PC:644a734     Total:6      MisBP:0   MisRate:0.00%    MPKI:0.00
PC:2a3b974     Total:43      MisBP:0   MisRate:0.00%    MPKI:0.00
PC:644a72c     Total:4      MisBP:0   MisRate:0.00%    MPKI:0.00
PC:32176a0     Total:2      MisBP:0   MisRate:0.00%    MPKI:0.00
PC:638dff8     Total:1      MisBP:0   MisRate:0.00%    MPKI:0.00
PC:22daf0c     Total:35      MisBP:0   MisRate:0.00%    MPKI:0.00
PC:3209258     Total:16      MisBP:0   MisRate:0.00%    MPKI:0.00
PC:2a3b978     Total:43      MisBP:0   MisRate:0.00%    MPKI:0.00
PC:644a730     Total:4      MisBP:0   MisRate:0.00%    MPKI:0.00
PC:32176a4     Total:2      MisBP:0   MisRate:0.00%    MPKI:0.00
PC:638dffc     Total:1      MisBP:0   MisRate:0.00%    MPKI:0.00
PC:22daf10     Total:35      MisBP:0   MisRate:0.00%    MPKI:0.00
PC:320925c     Total:16      MisBP:0   MisRate:0.00%    MPKI:0.00
PC:2a3b97c     Total:43      MisBP:0   MisRate:0.00%    MPKI:0.00
PC:3209254     Total:16      MisBP:0   MisRate:0.00%    MPKI:0.00
PC:32176a8     Total:2      MisBP:0   MisRate:0.00%    MPKI:0.00
PC:16d3610     Total:1      MisBP:0   MisRate:0.00%    MPKI:0.00
PC:638e000     Total:1      MisBP:0   MisRate:0.00%    MPKI:0.00
PC:22daf14     Total:35      MisBP:0   MisRate:0.00%    MPKI:0.00
PC:3209260     Total:16      MisBP:0   MisRate:0.00%    MPKI:0.00
PC:2a3b980     Total:38      MisBP:0   MisRate:0.00%    MPKI:0.00
PC:644a738     Total:2      MisBP:0   MisRate:0.00%    MPKI:0.00
PC:32176ac     Total:2      MisBP:0   MisRate:0.00%    MPKI:0.00
PC:16d3614     Total:1      MisBP:0   MisRate:0.00%    MPKI:0.00
PC:638e004     Total:1      MisBP:0   MisRate:0.00%    MPKI:0.00
PC:22daf18     Total:35      MisBP:0   MisRate:0.00%    MPKI:0.00
PC:3209264     Total:16      MisBP:0   MisRate:0.00%    MPKI:0.00
PC:2a3b984     Total:38      MisBP:0   MisRate:0.00%    MPKI:0.00
PC:4abb8     Total:53317      MisBP:0   MisRate:0.00%    MPKI:0.00
PC:644a718     Total:2      MisBP:0   MisRate:0.00%    MPKI:0.00
PC:fe5d70     Total:1      MisBP:0   MisRate:0.00%    MPKI:0.00
PC:3209244     Total:16      MisBP:0   MisRate:0.00%    MPKI:0.00
PC:4abb0     Total:64185      MisBP:0   MisRate:0.00%    MPKI:0.00
PC:2a3b964     Total:43      MisBP:0   MisRate:0.00%    MPKI:0.00
PC:644a71c     Total:2      MisBP:0   MisRate:0.00%    MPKI:0.00
PC:fe5d74     Total:1      MisBP:0   MisRate:0.00%    MPKI:0.00
PC:3209248     Total:16      MisBP:0   MisRate:0.00%    MPKI:0.00
PC:4abb4     Total:53319      MisBP:0   MisRate:0.00%    MPKI:0.00
PC:2a3b968     Total:43      MisBP:0   MisRate:0.00%    MPKI:0.00
PC:644a720     Total:2      MisBP:0   MisRate:0.00%    MPKI:0.00
PC:fe5d78     Total:1      MisBP:0   MisRate:0.00%    MPKI:0.00
PC:320924c     Total:16      MisBP:0   MisRate:0.00%    MPKI:0.00
PC:660df94     Total:1      MisBP:0   MisRate:0.00%    MPKI:0.00
PC:2a3b96c     Total:43      MisBP:0   MisRate:0.00%    MPKI:0.00
PC:644a724     Total:2      MisBP:0   MisRate:0.00%    MPKI:0.00
PC:3217698     Total:2      MisBP:0   MisRate:0.00%    MPKI:0.00
PC:638dff0     Total:1      MisBP:0   MisRate:0.00%    MPKI:0.00
PC:22daf04     Total:35      MisBP:0   MisRate:0.00%    MPKI:0.00
PC:fe5d7c     Total:1      MisBP:0   MisRate:0.00%    MPKI:0.00
PC:3209250     Total:16      MisBP:0   MisRate:0.00%    MPKI:0.00
PC:4abbc     Total:53317      MisBP:0   MisRate:0.00%    MPKI:0.00
PC:2a3b970     Total:43      MisBP:0   MisRate:0.00%    MPKI:0.00
PC:644a728     Total:2      MisBP:0   MisRate:0.00%    MPKI:0.00
PC:321769c     Total:2      MisBP:0   MisRate:0.00%    MPKI:0.00
PC:638dff4     Total:1      MisBP:0   MisRate:0.00%    MPKI:0.00
PC:22daf08     Total:35      MisBP:0   MisRate:0.00%    MPKI:0.00
PC:1801a38     Total:59      MisBP:0   MisRate:0.00%    MPKI:0.00
PC:1801a18     Total:118      MisBP:0   MisRate:0.00%    MPKI:0.00
PC:1801a1c     Total:59      MisBP:0   MisRate:0.00%    MPKI:0.00
PC:1801a20     Total:59      MisBP:0   MisRate:0.00%    MPKI:0.00
PC:6362b68     Total:2      MisBP:0   MisRate:0.00%    MPKI:0.00
PC:1801a24     Total:59      MisBP:0   MisRate:0.00%    MPKI:0.00
PC:6362b6c     Total:2      MisBP:0   MisRate:0.00%    MPKI:0.00
PC:1801a28     Total:59      MisBP:0   MisRate:0.00%    MPKI:0.00
PC:6362b70     Total:2      MisBP:0   MisRate:0.00%    MPKI:0.00
PC:1801a2c     Total:59      MisBP:0   MisRate:0.00%    MPKI:0.00
PC:6362b74     Total:2      MisBP:0   MisRate:0.00%    MPKI:0.00
PC:1801a30     Total:59      MisBP:0   MisRate:0.00%    MPKI:0.00
PC:6362b78     Total:2      MisBP:0   MisRate:0.00%    MPKI:0.00
PC:1801a34     Total:59      MisBP:0   MisRate:0.00%    MPKI:0.00
PC:6362b7c     Total:2      MisBP:0   MisRate:0.00%    MPKI:0.00
PC:1801a14     Total:59      MisBP:0   MisRate:0.00%    MPKI:0.00
PC:6362b80     Total:2      MisBP:0   MisRate:0.00%    MPKI:0.00
PC:1801a3c     Total:59      MisBP:0   MisRate:0.00%    MPKI:0.00
PC:6362b84     Total:6      MisBP:0   MisRate:0.00%    MPKI:0.00
PC:1801a40     Total:54      MisBP:0   MisRate:0.00%    MPKI:0.00
PC:31f4314     Total:3      MisBP:0   MisRate:0.00%    MPKI:0.00
PC:6459110     Total:1      MisBP:0   MisRate:0.00%    MPKI:0.00
PC:6362b88     Total:2      MisBP:0   MisRate:0.00%    MPKI:0.00
PC:1801a44     Total:54      MisBP:0   MisRate:0.00%    MPKI:0.00
PC:31f4318     Total:3      MisBP:0   MisRate:0.00%    MPKI:0.00
PC:6459114     Total:1      MisBP:0   MisRate:0.00%    MPKI:0.00
PC:6362b8c     Total:4      MisBP:0   MisRate:0.00%    MPKI:0.00
PC:1801a48     Total:432      MisBP:0   MisRate:0.00%    MPKI:0.00
PC:31f431c     Total:3      MisBP:0   MisRate:0.00%    MPKI:0.00
PC:17cbad4     Total:32      MisBP:0   MisRate:0.00%    MPKI:0.00
PC:1da5d6c     Total:1      MisBP:0   MisRate:0.00%    MPKI:0.00
PC:17cbac4     Total:40      MisBP:0   MisRate:0.00%    MPKI:0.00
PC:2f5f248     Total:1      MisBP:0   MisRate:0.00%    MPKI:0.00
PC:1da5d70     Total:1      MisBP:0   MisRate:0.00%    MPKI:0.00
PC:17cbac8     Total:72      MisBP:0   MisRate:0.00%    MPKI:0.00
PC:2f5f24c     Total:1      MisBP:0   MisRate:0.00%    MPKI:0.00
PC:1da5d74     Total:1      MisBP:0   MisRate:0.00%    MPKI:0.00
PC:17cbacc     Total:64      MisBP:0   MisRate:0.00%    MPKI:0.00
PC:2f5f250     Total:1      MisBP:0   MisRate:0.00%    MPKI:0.00
PC:1da5d78     Total:1      MisBP:0   MisRate:0.00%    MPKI:0.00
PC:17cbad0     Total:32      MisBP:0   MisRate:0.00%    MPKI:0.00
PC:2f5f254     Total:1      MisBP:0   MisRate:0.00%    MPKI:0.00
PC:1da5d7c     Total:1      MisBP:0   MisRate:0.00%    MPKI:0.00
PC:6459118     Total:2      MisBP:0   MisRate:0.00%    MPKI:0.00
PC:2f5f258     Total:1      MisBP:0   MisRate:0.00%    MPKI:0.00
PC:1da5d80     Total:1      MisBP:0   MisRate:0.00%    MPKI:0.00
PC:17cbad8     Total:64      MisBP:0   MisRate:0.00%    MPKI:0.00
PC:2f5f25c     Total:1      MisBP:0   MisRate:0.00%    MPKI:0.00
PC:1da5d84     Total:1      MisBP:0   MisRate:0.00%    MPKI:0.00
PC:17cbadc     Total:53      MisBP:0   MisRate:0.00%    MPKI:0.00
PC:2f5f260     Total:1      MisBP:0   MisRate:0.00%    MPKI:0.00
PC:1da5d88     Total:1      MisBP:0   MisRate:0.00%    MPKI:0.00
PC:17cbae0     Total:21      MisBP:0   MisRate:0.00%    MPKI:0.00
PC:2f5f264     Total:1      MisBP:0   MisRate:0.00%    MPKI:0.00
PC:1da5d8c     Total:1      MisBP:0   MisRate:0.00%    MPKI:0.00
PC:17cbae4     Total:21      MisBP:0   MisRate:0.00%    MPKI:0.00
PC:2f5f268     Total:1      MisBP:0   MisRate:0.00%    MPKI:0.00
PC:6415d50     Total:1      MisBP:0   MisRate:0.00%    MPKI:0.00
PC:6362bac     Total:2      MisBP:0   MisRate:0.00%    MPKI:0.00
PC:1801a68     Total:54      MisBP:0   MisRate:0.00%    MPKI:0.00
PC:31f433c     Total:3      MisBP:0   MisRate:0.00%    MPKI:0.00
PC:6459138     Total:1      MisBP:0   MisRate:0.00%    MPKI:0.00
PC:6362bb0     Total:2      MisBP:0   MisRate:0.00%    MPKI:0.00
PC:1801a98     Total:49      MisBP:0   MisRate:0.00%    MPKI:0.00
PC:31f436c     Total:1      MisBP:0   MisRate:0.00%    MPKI:0.00
PC:6459168     Total:1      MisBP:0   MisRate:0.00%    MPKI:0.00
PC:6362be0     Total:1      MisBP:0   MisRate:0.00%    MPKI:0.00
PC:1801a9c     Total:49      MisBP:0   MisRate:0.00%    MPKI:0.00
PC:31f4370     Total:1      MisBP:0   MisRate:0.00%    MPKI:0.00
PC:645916c     Total:1      MisBP:0   MisRate:0.00%    MPKI:0.00
PC:6362be4     Total:1      MisBP:0   MisRate:0.00%    MPKI:0.00
PC:6459134     Total:2      MisBP:0   MisRate:0.00%    MPKI:0.00
PC:1801ac8     Total:44      MisBP:0   MisRate:0.00%    MPKI:0.00
PC:6459198     Total:1      MisBP:0   MisRate:0.00%    MPKI:0.00
PC:6362c10     Total:1      MisBP:0   MisRate:0.00%    MPKI:0.00
PC:6415d58     Total:1      MisBP:0   MisRate:0.00%    MPKI:0.00
PC:1801ad0     Total:44      MisBP:0   MisRate:0.00%    MPKI:0.00
PC:64591a0     Total:2      MisBP:0   MisRate:0.00%    MPKI:0.00
PC:6362c18     Total:1      MisBP:0   MisRate:0.00%    MPKI:0.00
PC:1834dcc     Total:56      MisBP:0   MisRate:0.00%    MPKI:0.00
PC:1834dd0     Total:112      MisBP:0   MisRate:0.00%    MPKI:0.00
PC:1834dd4     Total:56      MisBP:0   MisRate:0.00%    MPKI:0.00
PC:1834dd8     Total:56      MisBP:0   MisRate:0.00%    MPKI:0.00
PC:1834ddc     Total:56      MisBP:0   MisRate:0.00%    MPKI:0.00
PC:1834de0     Total:56      MisBP:0   MisRate:0.00%    MPKI:0.00
PC:1801a58     Total:54      MisBP:0   MisRate:0.00%    MPKI:0.00
PC:6362b90     Total:2      MisBP:0   MisRate:0.00%    MPKI:0.00
PC:1801a4c     Total:54      MisBP:0   MisRate:0.00%    MPKI:0.00
PC:31f4320     Total:3      MisBP:0   MisRate:0.00%    MPKI:0.00
PC:645911c     Total:1      MisBP:0   MisRate:0.00%    MPKI:0.00
PC:6362b94     Total:6      MisBP:0   MisRate:0.00%    MPKI:0.00
PC:1801a50     Total:54      MisBP:0   MisRate:0.00%    MPKI:0.00
PC:31f4324     Total:3      MisBP:0   MisRate:0.00%    MPKI:0.00
PC:6459120     Total:1      MisBP:0   MisRate:0.00%    MPKI:0.00
PC:6362b98     Total:2      MisBP:0   MisRate:0.00%    MPKI:0.00
PC:1801a54     Total:54      MisBP:0   MisRate:0.00%    MPKI:0.00
PC:31f4328     Total:3      MisBP:0   MisRate:0.00%    MPKI:0.00
PC:6459124     Total:2      MisBP:0   MisRate:0.00%    MPKI:0.00
PC:6362b9c     Total:2      MisBP:0   MisRate:0.00%    MPKI:0.00
PC:2f5f244     Total:1      MisBP:0   MisRate:0.00%    MPKI:0.00
PC:31f432c     Total:3      MisBP:0   MisRate:0.00%    MPKI:0.00
PC:6459128     Total:1      MisBP:0   MisRate:0.00%    MPKI:0.00
PC:6362ba0     Total:2      MisBP:0   MisRate:0.00%    MPKI:0.00
PC:1801a5c     Total:54      MisBP:0   MisRate:0.00%    MPKI:0.00
PC:31f4330     Total:3      MisBP:0   MisRate:0.00%    MPKI:0.00
PC:645912c     Total:3      MisBP:0   MisRate:0.00%    MPKI:0.00
PC:6362ba4     Total:2      MisBP:0   MisRate:0.00%    MPKI:0.00
PC:1801a60     Total:54      MisBP:0   MisRate:0.00%    MPKI:0.00
PC:31f4334     Total:3      MisBP:0   MisRate:0.00%    MPKI:0.00
PC:6459130     Total:1      MisBP:0   MisRate:0.00%    MPKI:0.00
PC:6362ba8     Total:2      MisBP:0   MisRate:0.00%    MPKI:0.00
PC:1801a64     Total:54      MisBP:0   MisRate:0.00%    MPKI:0.00
PC:31f4338     Total:3      MisBP:0   MisRate:0.00%    MPKI:0.00
PC:17cba30     Total:55      MisBP:0   MisRate:0.00%    MPKI:0.00
PC:17cba14     Total:55      MisBP:0   MisRate:0.00%    MPKI:0.00
PC:1afe48     Total:80      MisBP:0   MisRate:0.00%    MPKI:0.00
PC:17cba18     Total:55      MisBP:0   MisRate:0.00%    MPKI:0.00
PC:1afe4c     Total:80      MisBP:0   MisRate:0.00%    MPKI:0.00
PC:17cba1c     Total:55      MisBP:0   MisRate:0.00%    MPKI:0.00
PC:1afe50     Total:80      MisBP:0   MisRate:0.00%    MPKI:0.00
PC:17cba20     Total:55      MisBP:0   MisRate:0.00%    MPKI:0.00
PC:1afe54     Total:80      MisBP:0   MisRate:0.00%    MPKI:0.00
PC:17cba24     Total:55      MisBP:0   MisRate:0.00%    MPKI:0.00
PC:1afe58     Total:80      MisBP:0   MisRate:0.00%    MPKI:0.00
PC:17cba28     Total:440      MisBP:0   MisRate:0.00%    MPKI:0.00
PC:1afe5c     Total:160      MisBP:0   MisRate:0.00%    MPKI:0.00
PC:17cba2c     Total:55      MisBP:0   MisRate:0.00%    MPKI:0.00
PC:1afe60     Total:80      MisBP:0   MisRate:0.00%    MPKI:0.00
PC:1afe44     Total:80      MisBP:0   MisRate:0.00%    MPKI:0.00
PC:1afe64     Total:80      MisBP:0   MisRate:0.00%    MPKI:0.00
PC:17cba34     Total:55      MisBP:0   MisRate:0.00%    MPKI:0.00
PC:1afe68     Total:80      MisBP:0   MisRate:0.00%    MPKI:0.00
PC:17cba38     Total:55      MisBP:0   MisRate:0.00%    MPKI:0.00
PC:1afe6c     Total:80      MisBP:0   MisRate:0.00%    MPKI:0.00
PC:17cba3c     Total:55      MisBP:0   MisRate:0.00%    MPKI:0.00
PC:1afe70     Total:80      MisBP:0   MisRate:0.00%    MPKI:0.00
PC:17cba40     Total:50      MisBP:0   MisRate:0.00%    MPKI:0.00
PC:1afe74     Total:3      MisBP:0   MisRate:0.00%    MPKI:0.00
PC:17cba44     Total:50      MisBP:0   MisRate:0.00%    MPKI:0.00
PC:1afe78     Total:3      MisBP:0   MisRate:0.00%    MPKI:0.00
PC:17cba48     Total:50      MisBP:0   MisRate:0.00%    MPKI:0.00
PC:1afe7c     Total:3      MisBP:0   MisRate:0.00%    MPKI:0.00
PC:1afe28     Total:80      MisBP:0   MisRate:0.00%    MPKI:0.00
PC:17a8390     Total:21      MisBP:0   MisRate:0.00%    MPKI:0.00
PC:15f1a     Total:207946      MisBP:0   MisRate:0.00%    MPKI:0.00
PC:17a8394     Total:21      MisBP:0   MisRate:0.00%    MPKI:0.00
PC:15f1e     Total:69273      MisBP:0   MisRate:0.00%    MPKI:0.00
PC:17a8398     Total:21      MisBP:0   MisRate:0.00%    MPKI:0.00
PC:17a839c     Total:21      MisBP:0   MisRate:0.00%    MPKI:0.00
PC:15f26     Total:66403      MisBP:0   MisRate:0.00%    MPKI:0.00
PC:17a83a0     Total:21      MisBP:0   MisRate:0.00%    MPKI:0.00
PC:15f2a     Total:65927      MisBP:0   MisRate:0.00%    MPKI:0.00
PC:17a83a4     Total:21      MisBP:0   MisRate:0.00%    MPKI:0.00
PC:17a83a8     Total:21      MisBP:0   MisRate:0.00%    MPKI:0.00
PC:1afe24     Total:80      MisBP:0   MisRate:0.00%    MPKI:0.00
PC:17cb9f4     Total:60      MisBP:0   MisRate:0.00%    MPKI:0.00
PC:17cba4c     Total:100      MisBP:0   MisRate:0.00%    MPKI:0.00
PC:17cb9f8     Total:120      MisBP:0   MisRate:0.00%    MPKI:0.00
PC:1afe2c     Total:80      MisBP:0   MisRate:0.00%    MPKI:0.00
PC:17cb9fc     Total:60      MisBP:0   MisRate:0.00%    MPKI:0.00
PC:1afe30     Total:80      MisBP:0   MisRate:0.00%    MPKI:0.00
PC:17cba00     Total:55      MisBP:0   MisRate:0.00%    MPKI:0.00
PC:1afe34     Total:80      MisBP:0   MisRate:0.00%    MPKI:0.00
PC:17cba04     Total:55      MisBP:0   MisRate:0.00%    MPKI:0.00
PC:1afe38     Total:80      MisBP:0   MisRate:0.00%    MPKI:0.00
PC:17cba08     Total:55      MisBP:0   MisRate:0.00%    MPKI:0.00
PC:1afe3c     Total:80      MisBP:0   MisRate:0.00%    MPKI:0.00
PC:17cba0c     Total:55      MisBP:0   MisRate:0.00%    MPKI:0.00
PC:1afe40     Total:80      MisBP:0   MisRate:0.00%    MPKI:0.00
PC:17cba10     Total:55      MisBP:0   MisRate:0.00%    MPKI:0.00
PC:1da5d58     Total:1      MisBP:0   MisRate:0.00%    MPKI:0.00
PC:2f5f220     Total:1      MisBP:0   MisRate:0.00%    MPKI:0.00
PC:1da5d48     Total:1      MisBP:0   MisRate:0.00%    MPKI:0.00
PC:17cbaa0     Total:45      MisBP:0   MisRate:0.00%    MPKI:0.00
PC:2f5f224     Total:1      MisBP:0   MisRate:0.00%    MPKI:0.00
PC:1da5d4c     Total:1      MisBP:0   MisRate:0.00%    MPKI:0.00
PC:17cbaa4     Total:45      MisBP:0   MisRate:0.00%    MPKI:0.00
PC:2f5f228     Total:1      MisBP:0   MisRate:0.00%    MPKI:0.00
PC:1da5d50     Total:1      MisBP:0   MisRate:0.00%    MPKI:0.00
PC:17cbaa8     Total:45      MisBP:0   MisRate:0.00%    MPKI:0.00
PC:2f5f22c     Total:1      MisBP:0   MisRate:0.00%    MPKI:0.00
PC:1da5d54     Total:1      MisBP:0   MisRate:0.00%    MPKI:0.00
PC:17cbaac     Total:90      MisBP:0   MisRate:0.00%    MPKI:0.00
PC:2f5f230     Total:2      MisBP:0   MisRate:0.00%    MPKI:0.00
PC:17cba9c     Total:45      MisBP:0   MisRate:0.00%    MPKI:0.00
PC:17cbab0     Total:45      MisBP:0   MisRate:0.00%    MPKI:0.00
PC:2f5f234     Total:1      MisBP:0   MisRate:0.00%    MPKI:0.00
PC:1da5d5c     Total:1      MisBP:0   MisRate:0.00%    MPKI:0.00
PC:17cbab4     Total:45      MisBP:0   MisRate:0.00%    MPKI:0.00
PC:2f5f238     Total:1      MisBP:0   MisRate:0.00%    MPKI:0.00
PC:1da5d60     Total:1      MisBP:0   MisRate:0.00%    MPKI:0.00
PC:17cbab8     Total:45      MisBP:0   MisRate:0.00%    MPKI:0.00
PC:2f5f23c     Total:1      MisBP:0   MisRate:0.00%    MPKI:0.00
PC:1da5d64     Total:1      MisBP:0   MisRate:0.00%    MPKI:0.00
PC:17cbabc     Total:45      MisBP:0   MisRate:0.00%    MPKI:0.00
PC:2f5f240     Total:1      MisBP:0   MisRate:0.00%    MPKI:0.00
PC:1da5d68     Total:1      MisBP:0   MisRate:0.00%    MPKI:0.00
PC:17cbac0     Total:40      MisBP:0   MisRate:0.00%    MPKI:0.00
PC:17cba7c     Total:50      MisBP:0   MisRate:0.00%    MPKI:0.00
PC:1afe80     Total:3      MisBP:0   MisRate:0.00%    MPKI:0.00
PC:17cba50     Total:50      MisBP:0   MisRate:0.00%    MPKI:0.00
PC:1afe84     Total:6      MisBP:0   MisRate:0.00%    MPKI:0.00
PC:17cba54     Total:50      MisBP:0   MisRate:0.00%    MPKI:0.00
PC:17cba58     Total:50      MisBP:0   MisRate:0.00%    MPKI:0.00
PC:17cba5c     Total:50      MisBP:0   MisRate:0.00%    MPKI:0.00
PC:17cba60     Total:50      MisBP:0   MisRate:0.00%    MPKI:0.00
PC:17cba64     Total:100      MisBP:0   MisRate:0.00%    MPKI:0.00
PC:17cba68     Total:50      MisBP:0   MisRate:0.00%    MPKI:0.00
PC:17cba6c     Total:50      MisBP:0   MisRate:0.00%    MPKI:0.00
PC:17cba70     Total:100      MisBP:0   MisRate:0.00%    MPKI:0.00
PC:17cba74     Total:50      MisBP:0   MisRate:0.00%    MPKI:0.00
PC:17cba78     Total:50      MisBP:0   MisRate:0.00%    MPKI:0.00
PC:1834de4     Total:56      MisBP:0   MisRate:0.00%    MPKI:0.00
PC:17cba80     Total:45      MisBP:0   MisRate:0.00%    MPKI:0.00
PC:17cba84     Total:90      MisBP:0   MisRate:0.00%    MPKI:0.00
PC:17cba88     Total:45      MisBP:0   MisRate:0.00%    MPKI:0.00
PC:17cba8c     Total:45      MisBP:0   MisRate:0.00%    MPKI:0.00
PC:2f5f210     Total:1      MisBP:0   MisRate:0.00%    MPKI:0.00
PC:17cba90     Total:45      MisBP:0   MisRate:0.00%    MPKI:0.00
PC:2f5f214     Total:1      MisBP:0   MisRate:0.00%    MPKI:0.00
PC:17cba94     Total:45      MisBP:0   MisRate:0.00%    MPKI:0.00
PC:2f5f218     Total:1      MisBP:0   MisRate:0.00%    MPKI:0.00
PC:1da5d40     Total:1      MisBP:0   MisRate:0.00%    MPKI:0.00
PC:17cba98     Total:45      MisBP:0   MisRate:0.00%    MPKI:0.00
PC:2f5f21c     Total:1      MisBP:0   MisRate:0.00%    MPKI:0.00
PC:1da5d44     Total:1      MisBP:0   MisRate:0.00%    MPKI:0.00
PC:291c0ac     Total:51      MisBP:0   MisRate:0.00%    MPKI:0.00
PC:1875414     Total:45      MisBP:0   MisRate:0.00%    MPKI:0.00
PC:651ecbc     Total:8      MisBP:0   MisRate:0.00%    MPKI:0.00
PC:66214     Total:27      MisBP:0   MisRate:0.00%    MPKI:0.00
PC:187541c     Total:45      MisBP:0   MisRate:0.00%    MPKI:0.00
PC:291c084     Total:51      MisBP:0   MisRate:0.00%    MPKI:0.00
PC:291c088     Total:51      MisBP:0   MisRate:0.00%    MPKI:0.00
PC:291c08c     Total:51      MisBP:0   MisRate:0.00%    MPKI:0.00
PC:291c090     Total:51      MisBP:0   MisRate:0.00%    MPKI:0.00
PC:291c094     Total:51      MisBP:0   MisRate:0.00%    MPKI:0.00
PC:291c098     Total:51      MisBP:0   MisRate:0.00%    MPKI:0.00
PC:291c09c     Total:51      MisBP:0   MisRate:0.00%    MPKI:0.00
PC:291c0a0     Total:51      MisBP:0   MisRate:0.00%    MPKI:0.00
PC:291c0a4     Total:51      MisBP:0   MisRate:0.00%    MPKI:0.00
PC:291c0a8     Total:51      MisBP:0   MisRate:0.00%    MPKI:0.00
PC:6620c     Total:33      MisBP:0   MisRate:0.00%    MPKI:0.00
PC:291c0b0     Total:51      MisBP:0   MisRate:0.00%    MPKI:0.00
PC:291c0b4     Total:51      MisBP:0   MisRate:0.00%    MPKI:0.00
PC:291c0b8     Total:408      MisBP:0   MisRate:0.00%    MPKI:0.00
PC:291c0bc     Total:51      MisBP:0   MisRate:0.00%    MPKI:0.00
PC:291c0c0     Total:46      MisBP:0   MisRate:0.00%    MPKI:0.00
PC:291c0c4     Total:46      MisBP:0   MisRate:0.00%    MPKI:0.00
PC:291c0c8     Total:46      MisBP:0   MisRate:0.00%    MPKI:0.00
PC:291c0cc     Total:46      MisBP:0   MisRate:0.00%    MPKI:0.00
PC:291c0d0     Total:46      MisBP:0   MisRate:0.00%    MPKI:0.00
PC:291c0d4     Total:46      MisBP:0   MisRate:0.00%    MPKI:0.00
PC:291c0d8     Total:46      MisBP:0   MisRate:0.00%    MPKI:0.00
PC:291c0dc     Total:46      MisBP:0   MisRate:0.00%    MPKI:0.00
PC:291c0e0     Total:46      MisBP:0   MisRate:0.00%    MPKI:0.00
PC:18753ec     Total:50      MisBP:0   MisRate:0.00%    MPKI:0.00
PC:651ec78     Total:1      MisBP:0   MisRate:0.00%    MPKI:0.00
PC:661cc     Total:75      MisBP:0   MisRate:0.00%    MPKI:0.00
PC:18753d4     Total:50      MisBP:0   MisRate:0.00%    MPKI:0.00
PC:1deb180     Total:1      MisBP:0   MisRate:0.00%    MPKI:0.00
PC:651ec7c     Total:1      MisBP:0   MisRate:0.00%    MPKI:0.00
PC:661d0     Total:75      MisBP:0   MisRate:0.00%    MPKI:0.00
PC:18753d8     Total:50      MisBP:0   MisRate:0.00%    MPKI:0.00
PC:1deb184     Total:1      MisBP:0   MisRate:0.00%    MPKI:0.00
PC:651ec80     Total:1      MisBP:0   MisRate:0.00%    MPKI:0.00
PC:18753dc     Total:50      MisBP:0   MisRate:0.00%    MPKI:0.00
PC:1deb188     Total:1      MisBP:0   MisRate:0.00%    MPKI:0.00
PC:651ec84     Total:2      MisBP:0   MisRate:0.00%    MPKI:0.00
PC:661e4     Total:40      MisBP:0   MisRate:0.00%    MPKI:0.00
PC:291c0e4     Total:46      MisBP:0   MisRate:0.00%    MPKI:0.00
PC:1deb198     Total:1      MisBP:0   MisRate:0.00%    MPKI:0.00
PC:651ec94     Total:1      MisBP:0   MisRate:0.00%    MPKI:0.00
PC:18753f0     Total:50      MisBP:0   MisRate:0.00%    MPKI:0.00
PC:1deb19c     Total:1      MisBP:0   MisRate:0.00%    MPKI:0.00
PC:651ec98     Total:1      MisBP:0   MisRate:0.00%    MPKI:0.00
PC:661fc     Total:38      MisBP:0   MisRate:0.00%    MPKI:0.00
PC:1875404     Total:45      MisBP:0   MisRate:0.00%    MPKI:0.00
PC:1deb1b0     Total:1      MisBP:0   MisRate:0.00%    MPKI:0.00
PC:651ecac     Total:1      MisBP:0   MisRate:0.00%    MPKI:0.00
PC:66200     Total:95      MisBP:0   MisRate:0.00%    MPKI:0.00
PC:1875408     Total:45      MisBP:0   MisRate:0.00%    MPKI:0.00
PC:1deb1b4     Total:1      MisBP:0   MisRate:0.00%    MPKI:0.00
PC:651ecb0     Total:1      MisBP:0   MisRate:0.00%    MPKI:0.00
PC:a3e938     Total:1      MisBP:0   MisRate:0.00%    MPKI:0.00
PC:291c134     Total:41      MisBP:0   MisRate:0.00%    MPKI:0.00
PC:a3e930     Total:1      MisBP:0   MisRate:0.00%    MPKI:0.00
PC:291c138     Total:41      MisBP:0   MisRate:0.00%    MPKI:0.00
PC:3068c84     Total:27      MisBP:0   MisRate:0.00%    MPKI:0.00
PC:4a6b4c4     Total:1      MisBP:0   MisRate:0.00%    MPKI:0.00
PC:660df88     Total:1      MisBP:0   MisRate:0.00%    MPKI:0.00
PC:a3e934     Total:1      MisBP:0   MisRate:0.00%    MPKI:0.00
PC:a73f6     Total:3      MisBP:0   MisRate:0.00%    MPKI:0.00
PC:6353fdc     Total:1      MisBP:0   MisRate:0.00%    MPKI:0.00
PC:291c13c     Total:41      MisBP:0   MisRate:0.00%    MPKI:0.00
PC:3068c88     Total:27      MisBP:0   MisRate:0.00%    MPKI:0.00
PC:4a6b4c8     Total:1      MisBP:0   MisRate:0.00%    MPKI:0.00
PC:660df8c     Total:1      MisBP:0   MisRate:0.00%    MPKI:0.00
PC:6353fd4     Total:1      MisBP:0   MisRate:0.00%    MPKI:0.00
PC:a73fa     Total:3      MisBP:0   MisRate:0.00%    MPKI:0.00
PC:6353fe0     Total:1      MisBP:0   MisRate:0.00%    MPKI:0.00
PC:291c140     Total:36      MisBP:0   MisRate:0.00%    MPKI:0.00
PC:3068c8c     Total:27      MisBP:0   MisRate:0.00%    MPKI:0.00
PC:4a6b4cc     Total:2      MisBP:0   MisRate:0.00%    MPKI:0.00
PC:660df90     Total:1      MisBP:0   MisRate:0.00%    MPKI:0.00
PC:47fb6     Total:941      MisBP:0   MisRate:0.00%    MPKI:0.00
PC:5ad3f08     Total:2      MisBP:0   MisRate:0.00%    MPKI:0.00
PC:a3e93c     Total:1      MisBP:0   MisRate:0.00%    MPKI:0.00
PC:6353fe4     Total:1      MisBP:0   MisRate:0.00%    MPKI:0.00
PC:291c144     Total:36      MisBP:0   MisRate:0.00%    MPKI:0.00
PC:3068c90     Total:27      MisBP:0   MisRate:0.00%    MPKI:0.00
PC:4a6b4d0     Total:1      MisBP:0   MisRate:0.00%    MPKI:0.00
PC:291c11c     Total:41      MisBP:0   MisRate:0.00%    MPKI:0.00
PC:291c0e8     Total:46      MisBP:0   MisRate:0.00%    MPKI:0.00
PC:291c0ec     Total:46      MisBP:0   MisRate:0.00%    MPKI:0.00
PC:291c0f0     Total:46      MisBP:0   MisRate:0.00%    MPKI:0.00
PC:291c0f4     Total:46      MisBP:0   MisRate:0.00%    MPKI:0.00
PC:291c0f8     Total:46      MisBP:0   MisRate:0.00%    MPKI:0.00
PC:291c0fc     Total:46      MisBP:0   MisRate:0.00%    MPKI:0.00
PC:291c100     Total:41      MisBP:0   MisRate:0.00%    MPKI:0.00
PC:291c104     Total:41      MisBP:0   MisRate:0.00%    MPKI:0.00
PC:291c108     Total:41      MisBP:0   MisRate:0.00%    MPKI:0.00
PC:291c10c     Total:41      MisBP:0   MisRate:0.00%    MPKI:0.00
PC:291c110     Total:41      MisBP:0   MisRate:0.00%    MPKI:0.00
PC:291c114     Total:41      MisBP:0   MisRate:0.00%    MPKI:0.00
PC:291c118     Total:41      MisBP:0   MisRate:0.00%    MPKI:0.00
PC:1deb17c     Total:1      MisBP:0   MisRate:0.00%    MPKI:0.00
PC:291c120     Total:41      MisBP:0   MisRate:0.00%    MPKI:0.00
PC:291c124     Total:41      MisBP:0   MisRate:0.00%    MPKI:0.00
PC:6353fc8     Total:1      MisBP:0   MisRate:0.00%    MPKI:0.00
PC:291c128     Total:41      MisBP:0   MisRate:0.00%    MPKI:0.00
PC:a3e924     Total:1      MisBP:0   MisRate:0.00%    MPKI:0.00
PC:a73e6     Total:3      MisBP:0   MisRate:0.00%    MPKI:0.00
PC:6353fcc     Total:1      MisBP:0   MisRate:0.00%    MPKI:0.00
PC:291c12c     Total:41      MisBP:0   MisRate:0.00%    MPKI:0.00
PC:a3e928     Total:1      MisBP:0   MisRate:0.00%    MPKI:0.00
PC:a73ea     Total:3      MisBP:0   MisRate:0.00%    MPKI:0.00
PC:6353fd0     Total:1      MisBP:0   MisRate:0.00%    MPKI:0.00
PC:291c130     Total:41      MisBP:0   MisRate:0.00%    MPKI:0.00
PC:a3e92c     Total:2      MisBP:0   MisRate:0.00%    MPKI:0.00
PC:1834e50     Total:45      MisBP:0   MisRate:0.00%    MPKI:0.00
PC:649c474     Total:3      MisBP:0   MisRate:0.00%    MPKI:0.00
PC:1834e38     Total:51      MisBP:0   MisRate:0.00%    MPKI:0.00
PC:649c478     Total:1      MisBP:0   MisRate:0.00%    MPKI:0.00
PC:1834e3c     Total:102      MisBP:0   MisRate:0.00%    MPKI:0.00
PC:649c47c     Total:1      MisBP:0   MisRate:0.00%    MPKI:0.00
PC:1834e40     Total:45      MisBP:0   MisRate:0.00%    MPKI:0.00
PC:649c480     Total:1      MisBP:0   MisRate:0.00%    MPKI:0.00
PC:1834e44     Total:45      MisBP:0   MisRate:0.00%    MPKI:0.00
PC:649c484     Total:1      MisBP:0   MisRate:0.00%    MPKI:0.00
PC:1834e48     Total:45      MisBP:0   MisRate:0.00%    MPKI:0.00
PC:649c488     Total:1      MisBP:0   MisRate:0.00%    MPKI:0.00
PC:1834e4c     Total:45      MisBP:0   MisRate:0.00%    MPKI:0.00
PC:649c48c     Total:1      MisBP:0   MisRate:0.00%    MPKI:0.00
PC:1834e34     Total:51      MisBP:0   MisRate:0.00%    MPKI:0.00
PC:649c490     Total:1      MisBP:0   MisRate:0.00%    MPKI:0.00
PC:1834e54     Total:45      MisBP:0   MisRate:0.00%    MPKI:0.00
PC:649c494     Total:2      MisBP:0   MisRate:0.00%    MPKI:0.00
PC:1834e58     Total:45      MisBP:0   MisRate:0.00%    MPKI:0.00
PC:649c498     Total:1      MisBP:0   MisRate:0.00%    MPKI:0.00
PC:1834e5c     Total:90      MisBP:0   MisRate:0.00%    MPKI:0.00
PC:649c49c     Total:3      MisBP:0   MisRate:0.00%    MPKI:0.00
PC:1834e60     Total:45      MisBP:0   MisRate:0.00%    MPKI:0.00
PC:649c4a0     Total:1      MisBP:0   MisRate:0.00%    MPKI:0.00
PC:1834e64     Total:45      MisBP:0   MisRate:0.00%    MPKI:0.00
PC:649c4a4     Total:2      MisBP:0   MisRate:0.00%    MPKI:0.00
PC:1834e68     Total:45      MisBP:0   MisRate:0.00%    MPKI:0.00
PC:649c4a8     Total:1      MisBP:0   MisRate:0.00%    MPKI:0.00
PC:1834e18     Total:51      MisBP:0   MisRate:0.00%    MPKI:0.00
PC:1834de8     Total:56      MisBP:0   MisRate:0.00%    MPKI:0.00
PC:1834dec     Total:56      MisBP:0   MisRate:0.00%    MPKI:0.00
PC:1834df0     Total:56      MisBP:0   MisRate:0.00%    MPKI:0.00
PC:1834df4     Total:56      MisBP:0   MisRate:0.00%    MPKI:0.00
PC:3ac22     Total:27      MisBP:0   MisRate:0.00%    MPKI:0.00
PC:1834df8     Total:56      MisBP:0   MisRate:0.00%    MPKI:0.00
PC:1834dfc     Total:56      MisBP:0   MisRate:0.00%    MPKI:0.00
PC:1834e00     Total:408      MisBP:0   MisRate:0.00%    MPKI:0.00
PC:1834e04     Total:51      MisBP:0   MisRate:0.00%    MPKI:0.00
PC:1834e08     Total:51      MisBP:0   MisRate:0.00%    MPKI:0.00
PC:1834e0c     Total:51      MisBP:0   MisRate:0.00%    MPKI:0.00
PC:1834e10     Total:51      MisBP:0   MisRate:0.00%    MPKI:0.00
PC:1834e14     Total:51      MisBP:0   MisRate:0.00%    MPKI:0.00
PC:1834e6c     Total:45      MisBP:0   MisRate:0.00%    MPKI:0.00
PC:649c458     Total:1      MisBP:0   MisRate:0.00%    MPKI:0.00
PC:1834e1c     Total:51      MisBP:0   MisRate:0.00%    MPKI:0.00
PC:649c45c     Total:1      MisBP:0   MisRate:0.00%    MPKI:0.00
PC:1834e20     Total:51      MisBP:0   MisRate:0.00%    MPKI:0.00
PC:649c460     Total:1      MisBP:0   MisRate:0.00%    MPKI:0.00
PC:1834e24     Total:102      MisBP:0   MisRate:0.00%    MPKI:0.00
PC:649c464     Total:1      MisBP:0   MisRate:0.00%    MPKI:0.00
PC:1834e28     Total:51      MisBP:0   MisRate:0.00%    MPKI:0.00
PC:649c468     Total:1      MisBP:0   MisRate:0.00%    MPKI:0.00
PC:1834e2c     Total:51      MisBP:0   MisRate:0.00%    MPKI:0.00
PC:649c46c     Total:2      MisBP:0   MisRate:0.00%    MPKI:0.00
PC:1834e30     Total:51      MisBP:0   MisRate:0.00%    MPKI:0.00
PC:649c470     Total:2      MisBP:0   MisRate:0.00%    MPKI:0.00
PC:187538c     Total:54      MisBP:0   MisRate:0.00%    MPKI:0.00
PC:649c4e4     Total:12      MisBP:0   MisRate:0.00%    MPKI:0.00
PC:1834ea8     Total:40      MisBP:0   MisRate:0.00%    MPKI:0.00
PC:649c4e8     Total:2      MisBP:0   MisRate:0.00%    MPKI:0.00
PC:1834eac     Total:40      MisBP:0   MisRate:0.00%    MPKI:0.00
PC:649c4ec     Total:2      MisBP:0   MisRate:0.00%    MPKI:0.00
PC:1834eb0     Total:13      MisBP:0   MisRate:0.00%    MPKI:0.00
PC:66158     Total:1224      MisBP:0   MisRate:0.00%    MPKI:0.00
PC:1875360     Total:59      MisBP:0   MisRate:0.00%    MPKI:0.00
PC:6615c     Total:136      MisBP:0   MisRate:0.00%    MPKI:0.00
PC:1875364     Total:59      MisBP:0   MisRate:0.00%    MPKI:0.00
PC:66174     Total:73      MisBP:0   MisRate:0.00%    MPKI:0.00
PC:187537c     Total:59      MisBP:0   MisRate:0.00%    MPKI:0.00
PC:66184     Total:63      MisBP:0   MisRate:0.00%    MPKI:0.00
PC:1834ea4     Total:80      MisBP:0   MisRate:0.00%    MPKI:0.00
PC:6618c     Total:155      MisBP:0   MisRate:0.00%    MPKI:0.00
PC:1875394     Total:54      MisBP:0   MisRate:0.00%    MPKI:0.00
PC:66190     Total:250      MisBP:0   MisRate:0.00%    MPKI:0.00
PC:1875398     Total:54      MisBP:0   MisRate:0.00%    MPKI:0.00
PC:66194     Total:452      MisBP:0   MisRate:0.00%    MPKI:0.00
PC:187539c     Total:54      MisBP:0   MisRate:0.00%    MPKI:0.00
PC:18753a0     Total:54      MisBP:0   MisRate:0.00%    MPKI:0.00
PC:651ec48     Total:1      MisBP:0   MisRate:0.00%    MPKI:0.00
PC:661b4     Total:226      MisBP:0   MisRate:0.00%    MPKI:0.00
PC:18753bc     Total:54      MisBP:0   MisRate:0.00%    MPKI:0.00
PC:1deb168     Total:1      MisBP:0   MisRate:0.00%    MPKI:0.00
PC:651ec64     Total:3      MisBP:0   MisRate:0.00%    MPKI:0.00
PC:18753d0     Total:50      MisBP:0   MisRate:0.00%    MPKI:0.00
PC:1834e88     Total:40      MisBP:0   MisRate:0.00%    MPKI:0.00
PC:649c4ac     Total:1      MisBP:0   MisRate:0.00%    MPKI:0.00
PC:1834e70     Total:45      MisBP:0   MisRate:0.00%    MPKI:0.00
PC:649c4b0     Total:1      MisBP:0   MisRate:0.00%    MPKI:0.00
PC:1834e74     Total:45      MisBP:0   MisRate:0.00%    MPKI:0.00
PC:649c4b4     Total:1      MisBP:0   MisRate:0.00%    MPKI:0.00
PC:1834e78     Total:45      MisBP:0   MisRate:0.00%    MPKI:0.00
PC:649c4b8     Total:1      MisBP:0   MisRate:0.00%    MPKI:0.00
PC:1834e7c     Total:45      MisBP:0   MisRate:0.00%    MPKI:0.00
PC:649c4bc     Total:1      MisBP:0   MisRate:0.00%    MPKI:0.00
PC:1834e80     Total:40      MisBP:0   MisRate:0.00%    MPKI:0.00
PC:649c4c0     Total:1      MisBP:0   MisRate:0.00%    MPKI:0.00
PC:1834e84     Total:40      MisBP:0   MisRate:0.00%    MPKI:0.00
PC:649c4c4     Total:1      MisBP:0   MisRate:0.00%    MPKI:0.00
PC:644a78c     Total:21      MisBP:0   MisRate:0.00%    MPKI:0.00
PC:649c4c8     Total:1      MisBP:0   MisRate:0.00%    MPKI:0.00
PC:1834e8c     Total:40      MisBP:0   MisRate:0.00%    MPKI:0.00
PC:649c4cc     Total:7      MisBP:0   MisRate:0.00%    MPKI:0.00
PC:1834e90     Total:40      MisBP:0   MisRate:0.00%    MPKI:0.00
PC:649c4d0     Total:1      MisBP:0   MisRate:0.00%    MPKI:0.00
PC:1834e94     Total:40      MisBP:0   MisRate:0.00%    MPKI:0.00
PC:649c4d4     Total:1      MisBP:0   MisRate:0.00%    MPKI:0.00
PC:1834e98     Total:40      MisBP:0   MisRate:0.00%    MPKI:0.00
PC:649c4d8     Total:1      MisBP:0   MisRate:0.00%    MPKI:0.00
PC:1834e9c     Total:40      MisBP:0   MisRate:0.00%    MPKI:0.00
PC:649c4dc     Total:1      MisBP:0   MisRate:0.00%    MPKI:0.00
PC:1834ea0     Total:80      MisBP:0   MisRate:0.00%    MPKI:0.00
PC:649c4e0     Total:1      MisBP:0   MisRate:0.00%    MPKI:0.00
PC:1a75e30     Total:50      MisBP:0   MisRate:0.00%    MPKI:0.00
PC:6683574     Total:2      MisBP:0   MisRate:0.00%    MPKI:0.00
PC:6683578     Total:2      MisBP:0   MisRate:0.00%    MPKI:0.00
PC:668357c     Total:2      MisBP:0   MisRate:0.00%    MPKI:0.00
PC:6683580     Total:2      MisBP:0   MisRate:0.00%    MPKI:0.00
PC:6683584     Total:2      MisBP:0   MisRate:0.00%    MPKI:0.00
PC:6683588     Total:2      MisBP:0   MisRate:0.00%    MPKI:0.00
PC:1a75e28     Total:30      MisBP:0   MisRate:0.00%    MPKI:0.00
PC:6496a78     Total:1      MisBP:0   MisRate:0.00%    MPKI:0.00
PC:19710     Total:1554      MisBP:0   MisRate:0.00%    MPKI:0.00
PC:668358c     Total:4      MisBP:0   MisRate:0.00%    MPKI:0.00
PC:1a75e2c     Total:90      MisBP:0   MisRate:0.00%    MPKI:0.00
PC:6496a7c     Total:1      MisBP:0   MisRate:0.00%    MPKI:0.00
PC:19714     Total:1534      MisBP:0   MisRate:0.00%    MPKI:0.00
PC:6683590     Total:2      MisBP:0   MisRate:0.00%    MPKI:0.00
PC:6683570     Total:2      MisBP:0   MisRate:0.00%    MPKI:0.00
PC:6496a80     Total:1      MisBP:0   MisRate:0.00%    MPKI:0.00
PC:6683594     Total:2      MisBP:0   MisRate:0.00%    MPKI:0.00
PC:1a75e34     Total:30      MisBP:0   MisRate:0.00%    MPKI:0.00
PC:6496a84     Total:1      MisBP:0   MisRate:0.00%    MPKI:0.00
PC:6683598     Total:2      MisBP:0   MisRate:0.00%    MPKI:0.00
PC:1a75e38     Total:30      MisBP:0   MisRate:0.00%    MPKI:0.00
PC:6496a88     Total:1      MisBP:0   MisRate:0.00%    MPKI:0.00
PC:668359c     Total:2      MisBP:0   MisRate:0.00%    MPKI:0.00
PC:1a75e3c     Total:30      MisBP:0   MisRate:0.00%    MPKI:0.00
PC:6496a8c     Total:2      MisBP:0   MisRate:0.00%    MPKI:0.00
PC:19724     Total:1646      MisBP:0   MisRate:0.00%    MPKI:0.00
PC:66835a0     Total:2      MisBP:0   MisRate:0.00%    MPKI:0.00
PC:1a75e40     Total:27      MisBP:0   MisRate:0.00%    MPKI:0.00
PC:1466e68     Total:11      MisBP:0   MisRate:0.00%    MPKI:0.00
PC:644e8dc     Total:4      MisBP:0   MisRate:0.00%    MPKI:0.00
PC:2c0f838     Total:57      MisBP:0   MisRate:0.00%    MPKI:0.00
PC:63b681c     Total:1      MisBP:0   MisRate:0.00%    MPKI:0.00
PC:644e928     Total:4      MisBP:0   MisRate:0.00%    MPKI:0.00
PC:2c0f884     Total:16      MisBP:0   MisRate:0.00%    MPKI:0.00
PC:644e92c     Total:4      MisBP:0   MisRate:0.00%    MPKI:0.00
PC:2c0f888     Total:16      MisBP:0   MisRate:0.00%    MPKI:0.00
PC:1466e50     Total:11      MisBP:0   MisRate:0.00%    MPKI:0.00
PC:1466e54     Total:11      MisBP:0   MisRate:0.00%    MPKI:0.00
PC:1466e58     Total:11      MisBP:0   MisRate:0.00%    MPKI:0.00
PC:1466e5c     Total:11      MisBP:0   MisRate:0.00%    MPKI:0.00
PC:1466e60     Total:11      MisBP:0   MisRate:0.00%    MPKI:0.00
PC:1466e64     Total:11      MisBP:0   MisRate:0.00%    MPKI:0.00
PC:6496a90     Total:1      MisBP:0   MisRate:0.00%    MPKI:0.00
PC:3072434     Total:1      MisBP:0   MisRate:0.00%    MPKI:0.00
PC:24765c     Total:113      MisBP:0   MisRate:0.00%    MPKI:0.00
PC:a73dc     Total:3      MisBP:0   MisRate:0.00%    MPKI:0.00
PC:3072438     Total:1      MisBP:0   MisRate:0.00%    MPKI:0.00
PC:247660     Total:113      MisBP:0   MisRate:0.00%    MPKI:0.00
PC:6683550     Total:2      MisBP:0   MisRate:0.00%    MPKI:0.00
PC:6683554     Total:2      MisBP:0   MisRate:0.00%    MPKI:0.00
PC:6683558     Total:2      MisBP:0   MisRate:0.00%    MPKI:0.00
PC:668355c     Total:2      MisBP:0   MisRate:0.00%    MPKI:0.00
PC:6683560     Total:2      MisBP:0   MisRate:0.00%    MPKI:0.00
PC:6683564     Total:4      MisBP:0   MisRate:0.00%    MPKI:0.00
PC:6683568     Total:4      MisBP:0   MisRate:0.00%    MPKI:0.00
PC:668356c     Total:6      MisBP:0   MisRate:0.00%    MPKI:0.00
PC:13a6ee0     Total:47      MisBP:0   MisRate:0.00%    MPKI:0.00
PC:66835fc     Total:2      MisBP:0   MisRate:0.00%    MPKI:0.00
PC:13a6ed0     Total:47      MisBP:0   MisRate:0.00%    MPKI:0.00
PC:663bb68     Total:1      MisBP:0   MisRate:0.00%    MPKI:0.00
PC:64ca31c     Total:2      MisBP:0   MisRate:0.00%    MPKI:0.00
PC:13a6ed4     Total:94      MisBP:0   MisRate:0.00%    MPKI:0.00
PC:663bb6c     Total:1      MisBP:0   MisRate:0.00%    MPKI:0.00
PC:64ca320     Total:2      MisBP:0   MisRate:0.00%    MPKI:0.00
PC:13a6ed8     Total:47      MisBP:0   MisRate:0.00%    MPKI:0.00
PC:663bb70     Total:1      MisBP:0   MisRate:0.00%    MPKI:0.00
PC:64ca324     Total:2      MisBP:0   MisRate:0.00%    MPKI:0.00
PC:13a6edc     Total:47      MisBP:0   MisRate:0.00%    MPKI:0.00
PC:663bb74     Total:1      MisBP:0   MisRate:0.00%    MPKI:0.00
PC:64ca328     Total:2      MisBP:0   MisRate:0.00%    MPKI:0.00
PC:bfee8     Total:502      MisBP:0   MisRate:0.00%    MPKI:0.00
PC:663bb78     Total:1      MisBP:0   MisRate:0.00%    MPKI:0.00
PC:64ca32c     Total:1      MisBP:0   MisRate:0.00%    MPKI:0.00
PC:13a6ee4     Total:47      MisBP:0   MisRate:0.00%    MPKI:0.00
PC:663bb7c     Total:2      MisBP:0   MisRate:0.00%    MPKI:0.00
PC:64ca330     Total:1      MisBP:0   MisRate:0.00%    MPKI:0.00
PC:13a6ee8     Total:47      MisBP:0   MisRate:0.00%    MPKI:0.00
PC:663bb80     Total:2      MisBP:0   MisRate:0.00%    MPKI:0.00
PC:64ca334     Total:1      MisBP:0   MisRate:0.00%    MPKI:0.00
PC:13a6eec     Total:47      MisBP:0   MisRate:0.00%    MPKI:0.00
PC:663bb84     Total:3      MisBP:0   MisRate:0.00%    MPKI:0.00
PC:64ca338     Total:1      MisBP:0   MisRate:0.00%    MPKI:0.00
PC:13a6ef0     Total:47      MisBP:0   MisRate:0.00%    MPKI:0.00
PC:663bb88     Total:1      MisBP:0   MisRate:0.00%    MPKI:0.00
PC:1a75e68     Total:14      MisBP:0   MisRate:0.00%    MPKI:0.00
PC:19728     Total:1629      MisBP:0   MisRate:0.00%    MPKI:0.00
PC:66835a4     Total:2      MisBP:0   MisRate:0.00%    MPKI:0.00
PC:1a75e44     Total:27      MisBP:0   MisRate:0.00%    MPKI:0.00
PC:6496a94     Total:3      MisBP:0   MisRate:0.00%    MPKI:0.00
PC:1972c     Total:2212      MisBP:0   MisRate:0.00%    MPKI:0.00
PC:66835a8     Total:4      MisBP:0   MisRate:0.00%    MPKI:0.00
PC:1a75e48     Total:27      MisBP:0   MisRate:0.00%    MPKI:0.00
PC:6496a98     Total:1      MisBP:0   MisRate:0.00%    MPKI:0.00
PC:19730     Total:2207      MisBP:0   MisRate:0.00%    MPKI:0.00
PC:66835ac     Total:4      MisBP:0   MisRate:0.00%    MPKI:0.00
PC:1a75e4c     Total:27      MisBP:0   MisRate:0.00%    MPKI:0.00
PC:6496a9c     Total:1      MisBP:0   MisRate:0.00%    MPKI:0.00
PC:66835c8     Total:2      MisBP:0   MisRate:0.00%    MPKI:0.00
PC:63b6818     Total:4      MisBP:0   MisRate:0.00%    MPKI:0.00
PC:6496ab8     Total:1      MisBP:0   MisRate:0.00%    MPKI:0.00
PC:bfed0     Total:502      MisBP:0   MisRate:0.00%    MPKI:0.00
PC:66835e4     Total:4      MisBP:0   MisRate:0.00%    MPKI:0.00
PC:bfed4     Total:502      MisBP:0   MisRate:0.00%    MPKI:0.00
PC:66835e8     Total:2      MisBP:0   MisRate:0.00%    MPKI:0.00
PC:bfed8     Total:502      MisBP:0   MisRate:0.00%    MPKI:0.00
PC:66835ec     Total:2      MisBP:0   MisRate:0.00%    MPKI:0.00
PC:bfedc     Total:502      MisBP:0   MisRate:0.00%    MPKI:0.00
PC:66835f0     Total:2      MisBP:0   MisRate:0.00%    MPKI:0.00
PC:bfee0     Total:1004      MisBP:0   MisRate:0.00%    MPKI:0.00
PC:66835f4     Total:2      MisBP:0   MisRate:0.00%    MPKI:0.00
PC:bfee4     Total:502      MisBP:0   MisRate:0.00%    MPKI:0.00
PC:66835f8     Total:2      MisBP:0   MisRate:0.00%    MPKI:0.00
PC:333693c     Total:1      MisBP:0   MisRate:0.00%    MPKI:0.00
PC:2c0f7b4     Total:58      MisBP:0   MisRate:0.00%    MPKI:0.00
PC:63b6798     Total:3      MisBP:0   MisRate:0.00%    MPKI:0.00
PC:3336930     Total:1      MisBP:0   MisRate:0.00%    MPKI:0.00
PC:50bb58     Total:1      MisBP:0   MisRate:0.00%    MPKI:0.00
PC:2c0f7b8     Total:58      MisBP:0   MisRate:0.00%    MPKI:0.00
PC:63b679c     Total:4      MisBP:0   MisRate:0.00%    MPKI:0.00
PC:3336934     Total:1      MisBP:0   MisRate:0.00%    MPKI:0.00
PC:50bb5c     Total:1      MisBP:0   MisRate:0.00%    MPKI:0.00
PC:2c0f7bc     Total:58      MisBP:0   MisRate:0.00%    MPKI:0.00
PC:63b67a0     Total:3      MisBP:0   MisRate:0.00%    MPKI:0.00
PC:3336938     Total:1      MisBP:0   MisRate:0.00%    MPKI:0.00
PC:50bb60     Total:1      MisBP:0   MisRate:0.00%    MPKI:0.00
PC:2c0f7c0     Total:53      MisBP:0   MisRate:0.00%    MPKI:0.00
PC:63b67a4     Total:9      MisBP:0   MisRate:0.00%    MPKI:0.00
PC:50bb54     Total:1      MisBP:0   MisRate:0.00%    MPKI:0.00
PC:50bb64     Total:1      MisBP:0   MisRate:0.00%    MPKI:0.00
PC:2c0f7c4     Total:53      MisBP:0   MisRate:0.00%    MPKI:0.00
PC:63b67a8     Total:3      MisBP:0   MisRate:0.00%    MPKI:0.00
PC:50bb68     Total:1      MisBP:0   MisRate:0.00%    MPKI:0.00
PC:2c0f7c8     Total:53      MisBP:0   MisRate:0.00%    MPKI:0.00
PC:63b67ac     Total:3      MisBP:0   MisRate:0.00%    MPKI:0.00
PC:50bb6c     Total:1      MisBP:0   MisRate:0.00%    MPKI:0.00
PC:2c0f7cc     Total:53      MisBP:0   MisRate:0.00%    MPKI:0.00
PC:63b67b0     Total:3      MisBP:0   MisRate:0.00%    MPKI:0.00
PC:50bb70     Total:1      MisBP:0   MisRate:0.00%    MPKI:0.00
PC:2c0f7d0     Total:53      MisBP:0   MisRate:0.00%    MPKI:0.00
PC:63b67b4     Total:5      MisBP:0   MisRate:0.00%    MPKI:0.00
PC:50bb74     Total:1      MisBP:0   MisRate:0.00%    MPKI:0.00
PC:63b6788     Total:3      MisBP:0   MisRate:0.00%    MPKI:0.00
PC:a70b20     Total:20      MisBP:0   MisRate:0.00%    MPKI:0.00
PC:2bccae4     Total:44      MisBP:0   MisRate:0.00%    MPKI:0.00
PC:a70b24     Total:20      MisBP:0   MisRate:0.00%    MPKI:0.00
PC:2bccae8     Total:44      MisBP:0   MisRate:0.00%    MPKI:0.00
PC:a70b28     Total:20      MisBP:0   MisRate:0.00%    MPKI:0.00
PC:2bccaec     Total:44      MisBP:0   MisRate:0.00%    MPKI:0.00
PC:2bccaf0     Total:44      MisBP:0   MisRate:0.00%    MPKI:0.00
PC:2bccaf4     Total:44      MisBP:0   MisRate:0.00%    MPKI:0.00
PC:2bccaf8     Total:44      MisBP:0   MisRate:0.00%    MPKI:0.00
PC:2bccafc     Total:44      MisBP:0   MisRate:0.00%    MPKI:0.00
PC:333691c     Total:1      MisBP:0   MisRate:0.00%    MPKI:0.00
PC:50bb44     Total:1      MisBP:0   MisRate:0.00%    MPKI:0.00
PC:2c0f7a4     Total:58      MisBP:0   MisRate:0.00%    MPKI:0.00
PC:2c0f7d4     Total:53      MisBP:0   MisRate:0.00%    MPKI:0.00
PC:3336920     Total:1      MisBP:0   MisRate:0.00%    MPKI:0.00
PC:50bb48     Total:1      MisBP:0   MisRate:0.00%    MPKI:0.00
PC:2c0f7a8     Total:116      MisBP:0   MisRate:0.00%    MPKI:0.00
PC:63b678c     Total:4      MisBP:0   MisRate:0.00%    MPKI:0.00
PC:3336924     Total:1      MisBP:0   MisRate:0.00%    MPKI:0.00
PC:50bb4c     Total:2      MisBP:0   MisRate:0.00%    MPKI:0.00
PC:2c0f7ac     Total:58      MisBP:0   MisRate:0.00%    MPKI:0.00
PC:63b6790     Total:5      MisBP:0   MisRate:0.00%    MPKI:0.00
PC:3336928     Total:1      MisBP:0   MisRate:0.00%    MPKI:0.00
PC:50bb50     Total:1      MisBP:0   MisRate:0.00%    MPKI:0.00
PC:2c0f7b0     Total:58      MisBP:0   MisRate:0.00%    MPKI:0.00
PC:63b6794     Total:9      MisBP:0   MisRate:0.00%    MPKI:0.00
PC:333692c     Total:1      MisBP:0   MisRate:0.00%    MPKI:0.00
PC:644e8c8     Total:2      MisBP:0   MisRate:0.00%    MPKI:0.00
PC:63b67ec     Total:21      MisBP:0   MisRate:0.00%    MPKI:0.00
PC:2c0f80c     Total:48      MisBP:0   MisRate:0.00%    MPKI:0.00
PC:63b67f0     Total:3      MisBP:0   MisRate:0.00%    MPKI:0.00
PC:2c0f810     Total:48      MisBP:0   MisRate:0.00%    MPKI:0.00
PC:63b67f4     Total:3      MisBP:0   MisRate:0.00%    MPKI:0.00
PC:2c0f814     Total:96      MisBP:0   MisRate:0.00%    MPKI:0.00
PC:63b67f8     Total:3      MisBP:0   MisRate:0.00%    MPKI:0.00
PC:2c0f818     Total:48      MisBP:0   MisRate:0.00%    MPKI:0.00
PC:63b67fc     Total:3      MisBP:0   MisRate:0.00%    MPKI:0.00
PC:2c0f81c     Total:48      MisBP:0   MisRate:0.00%    MPKI:0.00
PC:63b6800     Total:2      MisBP:0   MisRate:0.00%    MPKI:0.00
PC:2c0f820     Total:48      MisBP:0   MisRate:0.00%    MPKI:0.00
PC:63b6804     Total:2      MisBP:0   MisRate:0.00%    MPKI:0.00
PC:2c0f808     Total:48      MisBP:0   MisRate:0.00%    MPKI:0.00
PC:2c0f824     Total:48      MisBP:0   MisRate:0.00%    MPKI:0.00
PC:63b6808     Total:4      MisBP:0   MisRate:0.00%    MPKI:0.00
PC:644e8cc     Total:2      MisBP:0   MisRate:0.00%    MPKI:0.00
PC:2c0f828     Total:48      MisBP:0   MisRate:0.00%    MPKI:0.00
PC:63b680c     Total:4      MisBP:0   MisRate:0.00%    MPKI:0.00
PC:644e8d0     Total:2      MisBP:0   MisRate:0.00%    MPKI:0.00
PC:2c0f82c     Total:48      MisBP:0   MisRate:0.00%    MPKI:0.00
PC:63b6810     Total:2      MisBP:0   MisRate:0.00%    MPKI:0.00
PC:644e8d4     Total:2      MisBP:0   MisRate:0.00%    MPKI:0.00
PC:2c0f830     Total:48      MisBP:0   MisRate:0.00%    MPKI:0.00
PC:63b6814     Total:2      MisBP:0   MisRate:0.00%    MPKI:0.00
PC:644e8d8     Total:2      MisBP:0   MisRate:0.00%    MPKI:0.00
PC:2c0f834     Total:96      MisBP:0   MisRate:0.00%    MPKI:0.00
PC:2c0f7ec     Total:53      MisBP:0   MisRate:0.00%    MPKI:0.00
PC:63b67b8     Total:3      MisBP:0   MisRate:0.00%    MPKI:0.00
PC:50bb78     Total:1      MisBP:0   MisRate:0.00%    MPKI:0.00
PC:2c0f7d8     Total:424      MisBP:0   MisRate:0.00%    MPKI:0.00
PC:63b67bc     Total:5      MisBP:0   MisRate:0.00%    MPKI:0.00
PC:50bb7c     Total:1      MisBP:0   MisRate:0.00%    MPKI:0.00
PC:2c0f7dc     Total:53      MisBP:0   MisRate:0.00%    MPKI:0.00
PC:63b67c0     Total:3      MisBP:0   MisRate:0.00%    MPKI:0.00
PC:2c0f7e0     Total:53      MisBP:0   MisRate:0.00%    MPKI:0.00
PC:63b67c4     Total:3      MisBP:0   MisRate:0.00%    MPKI:0.00
PC:2c0f7e4     Total:53      MisBP:0   MisRate:0.00%    MPKI:0.00
PC:63b67c8     Total:3      MisBP:0   MisRate:0.00%    MPKI:0.00
PC:2c0f7e8     Total:53      MisBP:0   MisRate:0.00%    MPKI:0.00
PC:63b67cc     Total:3      MisBP:0   MisRate:0.00%    MPKI:0.00
PC:64ca33c     Total:1      MisBP:0   MisRate:0.00%    MPKI:0.00
PC:63b67d0     Total:3      MisBP:0   MisRate:0.00%    MPKI:0.00
PC:2c0f7f0     Total:53      MisBP:0   MisRate:0.00%    MPKI:0.00
PC:63b67d4     Total:3      MisBP:0   MisRate:0.00%    MPKI:0.00
PC:2c0f7f4     Total:53      MisBP:0   MisRate:0.00%    MPKI:0.00
PC:63b67d8     Total:5      MisBP:0   MisRate:0.00%    MPKI:0.00
PC:2c0f7f8     Total:53      MisBP:0   MisRate:0.00%    MPKI:0.00
PC:63b67dc     Total:3      MisBP:0   MisRate:0.00%    MPKI:0.00
PC:2c0f7fc     Total:106      MisBP:0   MisRate:0.00%    MPKI:0.00
PC:63b67e0     Total:5      MisBP:0   MisRate:0.00%    MPKI:0.00
PC:2c0f800     Total:48      MisBP:0   MisRate:0.00%    MPKI:0.00
PC:63b67e4     Total:3      MisBP:0   MisRate:0.00%    MPKI:0.00
PC:2c0f804     Total:48      MisBP:0   MisRate:0.00%    MPKI:0.00
PC:63b67e8     Total:3      MisBP:0   MisRate:0.00%    MPKI:0.00
PC:4d8dea8     Total:1      MisBP:0   MisRate:0.00%    MPKI:0.00
PC:6696bc0     Total:1      MisBP:0   MisRate:0.00%    MPKI:0.00
PC:5671e     Total:1      MisBP:0   MisRate:0.00%    MPKI:0.00
PC:14a8690     Total:3      MisBP:0   MisRate:0.00%    MPKI:0.00
PC:2d1aeec     Total:27      MisBP:0   MisRate:0.00%    MPKI:0.00
PC:63b9d0c     Total:3      MisBP:0   MisRate:0.00%    MPKI:0.00
PC:4d8dea0     Total:1      MisBP:0   MisRate:0.00%    MPKI:0.00
PC:6696bc4     Total:1      MisBP:0   MisRate:0.00%    MPKI:0.00
PC:56722     Total:1      MisBP:0   MisRate:0.00%    MPKI:0.00
PC:14a8694     Total:3      MisBP:0   MisRate:0.00%    MPKI:0.00
PC:63b9d10     Total:1      MisBP:0   MisRate:0.00%    MPKI:0.00
PC:4d8dea4     Total:1      MisBP:0   MisRate:0.00%    MPKI:0.00
PC:6696bc8     Total:1      MisBP:0   MisRate:0.00%    MPKI:0.00
PC:14a8698     Total:3      MisBP:0   MisRate:0.00%    MPKI:0.00
PC:63b9d14     Total:1      MisBP:0   MisRate:0.00%    MPKI:0.00
PC:4d8de9c     Total:1      MisBP:0   MisRate:0.00%    MPKI:0.00
PC:6696bcc     Total:1      MisBP:0   MisRate:0.00%    MPKI:0.00
PC:5672a     Total:1      MisBP:0   MisRate:0.00%    MPKI:0.00
PC:14a869c     Total:3      MisBP:0   MisRate:0.00%    MPKI:0.00
PC:63b9d18     Total:1      MisBP:0   MisRate:0.00%    MPKI:0.00
PC:4d8debc     Total:1      MisBP:0   MisRate:0.00%    MPKI:0.00
PC:6696be0     Total:1      MisBP:0   MisRate:0.00%    MPKI:0.00
PC:14a86b0     Total:1      MisBP:0   MisRate:0.00%    MPKI:0.00
PC:63b9d2c     Total:2      MisBP:0   MisRate:0.00%    MPKI:0.00
PC:4d8dec0     Total:2      MisBP:0   MisRate:0.00%    MPKI:0.00
PC:6696be4     Total:1      MisBP:0   MisRate:0.00%    MPKI:0.00
PC:14a86b4     Total:1      MisBP:0   MisRate:0.00%    MPKI:0.00
PC:63b9d30     Total:1      MisBP:0   MisRate:0.00%    MPKI:0.00
PC:4d8dec4     Total:1      MisBP:0   MisRate:0.00%    MPKI:0.00
PC:6696b7c     Total:2      MisBP:0   MisRate:0.00%    MPKI:0.00
PC:6696b58     Total:2      MisBP:0   MisRate:0.00%    MPKI:0.00
PC:566b6     Total:65604      MisBP:0   MisRate:0.00%    MPKI:0.00
PC:14a8628     Total:8      MisBP:0   MisRate:0.00%    MPKI:0.00
PC:6696b6c     Total:2      MisBP:0   MisRate:0.00%    MPKI:0.00
PC:566ca     Total:63000      MisBP:0   MisRate:0.00%    MPKI:0.00
PC:14a863c     Total:7      MisBP:0   MisRate:0.00%    MPKI:0.00
PC:6696b70     Total:18      MisBP:0   MisRate:0.00%    MPKI:0.00
PC:14a8640     Total:3      MisBP:0   MisRate:0.00%    MPKI:0.00
PC:6696b74     Total:2      MisBP:0   MisRate:0.00%    MPKI:0.00
PC:14a8644     Total:3      MisBP:0   MisRate:0.00%    MPKI:0.00
PC:6696b78     Total:2      MisBP:0   MisRate:0.00%    MPKI:0.00
PC:566d6     Total:92301      MisBP:0   MisRate:0.00%    MPKI:0.00
PC:14a8648     Total:3      MisBP:0   MisRate:0.00%    MPKI:0.00
PC:6696be8     Total:1      MisBP:0   MisRate:0.00%    MPKI:0.00
PC:566da     Total:92213      MisBP:0   MisRate:0.00%    MPKI:0.00
PC:14a864c     Total:3      MisBP:0   MisRate:0.00%    MPKI:0.00
PC:6696b80     Total:2      MisBP:0   MisRate:0.00%    MPKI:0.00
PC:14a8650     Total:3      MisBP:0   MisRate:0.00%    MPKI:0.00
PC:4d8de60     Total:1      MisBP:0   MisRate:0.00%    MPKI:0.00
PC:6696b84     Total:19      MisBP:0   MisRate:0.00%    MPKI:0.00
PC:14a8654     Total:3      MisBP:0   MisRate:0.00%    MPKI:0.00
PC:4d8de98     Total:1      MisBP:0   MisRate:0.00%    MPKI:0.00
PC:6696bbc     Total:2      MisBP:0   MisRate:0.00%    MPKI:0.00
PC:5671a     Total:1      MisBP:0   MisRate:0.00%    MPKI:0.00
PC:14a868c     Total:3      MisBP:0   MisRate:0.00%    MPKI:0.00
PC:2d1aee8     Total:27      MisBP:0   MisRate:0.00%    MPKI:0.00
PC:63b9d08     Total:2      MisBP:0   MisRate:0.00%    MPKI:0.00
PC:19758c8     Total:27      MisBP:0   MisRate:0.00%    MPKI:0.00
PC:29fa7a8     Total:1      MisBP:0   MisRate:0.00%    MPKI:0.00
PC:bff44     Total:28      MisBP:0   MisRate:0.00%    MPKI:0.00
PC:19758b4     Total:30      MisBP:0   MisRate:0.00%    MPKI:0.00
PC:29fa7ac     Total:1      MisBP:0   MisRate:0.00%    MPKI:0.00
PC:bff48     Total:28      MisBP:0   MisRate:0.00%    MPKI:0.00
PC:19758b8     Total:30      MisBP:0   MisRate:0.00%    MPKI:0.00
PC:29fa7b0     Total:1      MisBP:0   MisRate:0.00%    MPKI:0.00
PC:19758bc     Total:30      MisBP:0   MisRate:0.00%    MPKI:0.00
PC:29fa7b4     Total:1      MisBP:0   MisRate:0.00%    MPKI:0.00
PC:19758c0     Total:27      MisBP:0   MisRate:0.00%    MPKI:0.00
PC:29fa7b8     Total:1      MisBP:0   MisRate:0.00%    MPKI:0.00
PC:19758c4     Total:27      MisBP:0   MisRate:0.00%    MPKI:0.00
[...]
PC:4e2d8     Total:10662      MisBP:218   MisRate:2.04%    MPKI:0.00
PC:2ebc0     Total:2045      MisBP:222   MisRate:10.86%    MPKI:0.00
PC:45ade     Total:930757      MisBP:224   MisRate:0.02%    MPKI:0.00
PC:4df4c     Total:1320      MisBP:228   MisRate:17.27%    MPKI:0.00
PC:ba8ce     Total:143555      MisBP:235   MisRate:0.16%    MPKI:0.00
PC:56e22     Total:30770      MisBP:237   MisRate:0.77%    MPKI:0.00
PC:147f0     Total:3690      MisBP:238   MisRate:6.45%    MPKI:0.00
PC:1aa34     Total:3494      MisBP:239   MisRate:6.84%    MPKI:0.00
PC:1a742     Total:40985      MisBP:244   MisRate:0.60%    MPKI:0.00
PC:4e2d0     Total:3533      MisBP:244   MisRate:6.91%    MPKI:0.00
PC:1ac40     Total:1402      MisBP:252   MisRate:17.97%    MPKI:0.00
PC:16ba4     Total:59712      MisBP:252   MisRate:0.42%    MPKI:0.00
PC:566d4     Total:61496      MisBP:253   MisRate:0.41%    MPKI:0.00
PC:1a59c     Total:3235      MisBP:259   MisRate:8.01%    MPKI:0.00
PC:4c18e     Total:1067      MisBP:269   MisRate:25.21%    MPKI:0.00
PC:646f6d4c     Total:0      MisBP:276   MisRate:inf%    MPKI:0.00
PC:2f2b4     Total:5044      MisBP:282   MisRate:5.59%    MPKI:0.00
PC:bb53c     Total:61134      MisBP:282   MisRate:0.46%    MPKI:0.00
PC:51774     Total:120411      MisBP:284   MisRate:0.24%    MPKI:0.00
PC:3ffd6     Total:763659      MisBP:286   MisRate:0.04%    MPKI:0.00
PC:1b00a     Total:26270      MisBP:288   MisRate:1.10%    MPKI:0.00
PC:2e91e     Total:25963      MisBP:293   MisRate:1.13%    MPKI:0.00
PC:c0564     Total:30657      MisBP:293   MisRate:0.96%    MPKI:0.00
PC:1b442     Total:34109      MisBP:295   MisRate:0.86%    MPKI:0.00
PC:30174     Total:3810      MisBP:304   MisRate:7.98%    MPKI:0.00
PC:1b5a0     Total:27412      MisBP:309   MisRate:1.13%    MPKI:0.00
PC:4bb00     Total:141647      MisBP:310   MisRate:0.22%    MPKI:0.00
PC:1b760     Total:2219      MisBP:314   MisRate:14.15%    MPKI:0.00
PC:4bc50     Total:1116529      MisBP:321   MisRate:0.03%    MPKI:0.00
PC:4b430     Total:93789      MisBP:332   MisRate:0.35%    MPKI:0.00
PC:bb4f0     Total:20435      MisBP:337   MisRate:1.65%    MPKI:0.00
PC:24     Total:0      MisBP:337   MisRate:inf%    MPKI:0.00
PC:4bcf2     Total:757      MisBP:347   MisRate:45.84%    MPKI:0.00
PC:400f2     Total:68942      MisBP:348   MisRate:0.50%    MPKI:0.00
PC:4df84     Total:1641      MisBP:358   MisRate:21.82%    MPKI:0.00
PC:14800     Total:3810      MisBP:359   MisRate:9.42%    MPKI:0.00
PC:4bc46     Total:277035      MisBP:361   MisRate:0.13%    MPKI:0.00
PC:3a338     Total:156897      MisBP:367   MisRate:0.23%    MPKI:0.00
PC:2ee6e     Total:43169      MisBP:380   MisRate:0.88%    MPKI:0.00
PC:2ee56     Total:44235      MisBP:380   MisRate:0.86%    MPKI:0.00
PC:ba83a     Total:12699      MisBP:380   MisRate:2.99%    MPKI:0.00
PC:bf8a2     Total:502      MisBP:381   MisRate:75.90%    MPKI:0.00
PC:2efb8     Total:5142      MisBP:383   MisRate:7.45%    MPKI:0.00
PC:bf89c     Total:114269      MisBP:387   MisRate:0.34%    MPKI:0.00
PC:3e032     Total:174398      MisBP:389   MisRate:0.22%    MPKI:0.00
PC:2f196     Total:1418      MisBP:392   MisRate:27.64%    MPKI:0.00
PC:3ff9c     Total:120588      MisBP:392   MisRate:0.33%    MPKI:0.00
PC:1b0f0     Total:804      MisBP:394   MisRate:49.00%    MPKI:0.00
PC:646f6d48     Total:0      MisBP:416   MisRate:inf%    MPKI:0.00
PC:646f6d44     Total:0      MisBP:419   MisRate:inf%    MPKI:0.00
PC:646f6d3c     Total:0      MisBP:422   MisRate:inf%    MPKI:0.00
PC:646f6d40     Total:0      MisBP:422   MisRate:inf%    MPKI:0.00
PC:1a8f4     Total:45347      MisBP:424   MisRate:0.94%    MPKI:0.00
PC:4c35e     Total:113998      MisBP:425   MisRate:0.37%    MPKI:0.00
PC:646f6d38     Total:0      MisBP:425   MisRate:inf%    MPKI:0.00
PC:646f6d34     Total:0      MisBP:426   MisRate:inf%    MPKI:0.00
PC:646f6d30     Total:0      MisBP:426   MisRate:inf%    MPKI:0.00
PC:646f6d2c     Total:0      MisBP:428   MisRate:inf%    MPKI:0.00
PC:be9f4     Total:2395      MisBP:429   MisRate:17.91%    MPKI:0.00
PC:1a9ea     Total:2832      MisBP:430   MisRate:15.18%    MPKI:0.00
PC:56e68     Total:29026      MisBP:431   MisRate:1.48%    MPKI:0.00
PC:bedd8     Total:1796      MisBP:435   MisRate:24.22%    MPKI:0.00
PC:646f6d28     Total:0      MisBP:441   MisRate:inf%    MPKI:0.00
PC:56e46     Total:28607      MisBP:442   MisRate:1.55%    MPKI:0.00
PC:20     Total:0      MisBP:445   MisRate:inf%    MPKI:0.00
PC:4e1f0     Total:157371      MisBP:447   MisRate:0.28%    MPKI:0.00
PC:14846     Total:3725      MisBP:472   MisRate:12.67%    MPKI:0.00
PC:1c     Total:0      MisBP:491   MisRate:inf%    MPKI:0.00
PC:1ae5c     Total:30817      MisBP:494   MisRate:1.60%    MPKI:0.00
PC:bad76     Total:127094      MisBP:512   MisRate:0.40%    MPKI:0.00
PC:a75b2     Total:159596      MisBP:514   MisRate:0.32%    MPKI:0.00
PC:4bca6     Total:2444      MisBP:522   MisRate:21.36%    MPKI:0.00
PC:1afde     Total:27030      MisBP:524   MisRate:1.94%    MPKI:0.00
PC:18     Total:0      MisBP:525   MisRate:inf%    MPKI:0.00
PC:2ec42     Total:3668      MisBP:526   MisRate:14.34%    MPKI:0.00
PC:646f6d24     Total:0      MisBP:527   MisRate:inf%    MPKI:0.00
PC:4b43a     Total:37113      MisBP:528   MisRate:1.42%    MPKI:0.00
PC:53e7c     Total:190422      MisBP:530   MisRate:0.28%    MPKI:0.00
PC:4c188     Total:28535      MisBP:531   MisRate:1.86%    MPKI:0.00
PC:2f6c6     Total:8299      MisBP:555   MisRate:6.69%    MPKI:0.00
PC:4e2b4     Total:1501      MisBP:559   MisRate:37.24%    MPKI:0.00
PC:1b814     Total:8341      MisBP:567   MisRate:6.80%    MPKI:0.00
PC:bb454     Total:7813      MisBP:568   MisRate:7.27%    MPKI:0.00
PC:1a9dc     Total:19830      MisBP:568   MisRate:2.86%    MPKI:0.00
PC:15b3c     Total:29051      MisBP:569   MisRate:1.96%    MPKI:0.00
PC:4a55c     Total:123274      MisBP:589   MisRate:0.48%    MPKI:0.00
PC:ba7e6     Total:128191      MisBP:610   MisRate:0.48%    MPKI:0.00
PC:14     Total:0      MisBP:613   MisRate:inf%    MPKI:0.00
PC:40020     Total:61676      MisBP:618   MisRate:1.00%    MPKI:0.00
PC:14484     Total:58906      MisBP:620   MisRate:1.05%    MPKI:0.00
PC:3ffac     Total:62020      MisBP:634   MisRate:1.02%    MPKI:0.00
PC:18624     Total:19177      MisBP:658   MisRate:3.43%    MPKI:0.00
PC:4e1ea     Total:156752      MisBP:667   MisRate:0.43%    MPKI:0.00
PC:2ef2a     Total:34586      MisBP:682   MisRate:1.97%    MPKI:0.00
PC:185e2     Total:2506      MisBP:696   MisRate:27.77%    MPKI:0.00
PC:1aa60     Total:18101      MisBP:704   MisRate:3.89%    MPKI:0.00
PC:45a8a     Total:149181      MisBP:712   MisRate:0.48%    MPKI:0.00
PC:c     Total:0      MisBP:732   MisRate:inf%    MPKI:0.00
PC:3ce84     Total:6929      MisBP:733   MisRate:10.58%    MPKI:0.00
PC:2f072     Total:6132      MisBP:739   MisRate:12.05%    MPKI:0.00
PC:10     Total:0      MisBP:742   MisRate:inf%    MPKI:0.00
PC:3df3a     Total:184419      MisBP:743   MisRate:0.40%    MPKI:0.00
PC:8     Total:0      MisBP:768   MisRate:inf%    MPKI:0.00
PC:1a534     Total:264254      MisBP:769   MisRate:0.29%    MPKI:0.00
PC:1a9f4     Total:2987      MisBP:786   MisRate:26.31%    MPKI:0.00
PC:517f2     Total:88669      MisBP:794   MisRate:0.90%    MPKI:0.00
PC:4     Total:0      MisBP:798   MisRate:inf%    MPKI:0.00
PC:420ca     Total:65065      MisBP:800   MisRate:1.23%    MPKI:0.00
PC:1b766     Total:173482      MisBP:801   MisRate:0.46%    MPKI:0.00
PC:4004c     Total:61582      MisBP:809   MisRate:1.31%    MPKI:0.00
PC:a75d0     Total:158375      MisBP:810   MisRate:0.51%    MPKI:0.00
PC:45ab8     Total:88450      MisBP:812   MisRate:0.92%    MPKI:0.00
PC:0     Total:0      MisBP:847   MisRate:inf%    MPKI:0.00
PC:bd276     Total:183499      MisBP:851   MisRate:0.46%    MPKI:0.00
PC:1a86c     Total:42558      MisBP:852   MisRate:2.00%    MPKI:0.00
PC:30166     Total:7531      MisBP:857   MisRate:11.38%    MPKI:0.00
PC:4b436     Total:222912      MisBP:879   MisRate:0.39%    MPKI:0.00
PC:ba16a     Total:7031      MisBP:934   MisRate:13.28%    MPKI:0.00
PC:2f27a     Total:42705      MisBP:947   MisRate:2.22%    MPKI:0.00
PC:4c1a8     Total:25520      MisBP:969   MisRate:3.80%    MPKI:0.00
PC:4dfb8     Total:2924      MisBP:975   MisRate:33.34%    MPKI:0.00
PC:bb70e     Total:76874      MisBP:982   MisRate:1.28%    MPKI:0.00
PC:bd26a     Total:183587      MisBP:987   MisRate:0.54%    MPKI:0.00
PC:1af64     Total:28270      MisBP:1021   MisRate:3.61%    MPKI:0.00
PC:ba888     Total:53516      MisBP:1027   MisRate:1.92%    MPKI:0.00
PC:1a936     Total:37017      MisBP:1029   MisRate:2.78%    MPKI:0.00
PC:4e1fc     Total:157785      MisBP:1057   MisRate:0.67%    MPKI:0.00
PC:ba166     Total:7975      MisBP:1071   MisRate:13.43%    MPKI:0.00
PC:1473a     Total:4445      MisBP:1078   MisRate:24.25%    MPKI:0.00
PC:465de     Total:90960      MisBP:1088   MisRate:1.20%    MPKI:0.00
PC:56dfe     Total:60886      MisBP:1102   MisRate:1.81%    MPKI:0.00
PC:1a914     Total:38439      MisBP:1102   MisRate:2.87%    MPKI:0.00
PC:1a7ba     Total:34400      MisBP:1111   MisRate:3.23%    MPKI:0.00
PC:3aeca     Total:175619      MisBP:1113   MisRate:0.63%    MPKI:0.00
PC:646f6d20     Total:0      MisBP:1129   MisRate:inf%    MPKI:0.00
PC:4df48     Total:167730      MisBP:1130   MisRate:0.67%    MPKI:0.00
PC:1a47c     Total:26753      MisBP:1132   MisRate:4.23%    MPKI:0.00
PC:1a9e6     Total:51825      MisBP:1146   MisRate:2.21%    MPKI:0.00
PC:46baa     Total:110212      MisBP:1155   MisRate:1.05%    MPKI:0.00
PC:4baba     Total:170314      MisBP:1170   MisRate:0.69%    MPKI:0.00
PC:4df78     Total:164527      MisBP:1234   MisRate:0.75%    MPKI:0.00
PC:bb7d4     Total:41704      MisBP:1254   MisRate:3.01%    MPKI:0.00
PC:571da     Total:89090      MisBP:1255   MisRate:1.41%    MPKI:0.00
PC:4c1c8     Total:28057      MisBP:1261   MisRate:4.49%    MPKI:0.00
PC:bb3ba     Total:121656      MisBP:1306   MisRate:1.07%    MPKI:0.00
PC:1ae6a     Total:31025      MisBP:1311   MisRate:4.23%    MPKI:0.00
PC:4216a     Total:12656      MisBP:1315   MisRate:10.39%    MPKI:0.00
PC:4476e     Total:192947      MisBP:1344   MisRate:0.70%    MPKI:0.00
PC:be728     Total:3365      MisBP:1372   MisRate:40.77%    MPKI:0.00
PC:4b466     Total:28963      MisBP:1400   MisRate:4.83%    MPKI:0.00
PC:4bc5c     Total:268712      MisBP:1403   MisRate:0.52%    MPKI:0.00
PC:bb2aa     Total:72786      MisBP:1417   MisRate:1.95%    MPKI:0.00
PC:be6fa     Total:44203      MisBP:1455   MisRate:3.29%    MPKI:0.00
PC:1ae2a     Total:34339      MisBP:1501   MisRate:4.37%    MPKI:0.00
PC:51800     Total:183701      MisBP:1557   MisRate:0.85%    MPKI:0.01
PC:2ef1a     Total:32864      MisBP:1560   MisRate:4.75%    MPKI:0.01
PC:2f6d4     Total:10101      MisBP:1574   MisRate:15.58%    MPKI:0.01
PC:1afd6     Total:25493      MisBP:1617   MisRate:6.34%    MPKI:0.01
PC:46bbc     Total:105950      MisBP:1630   MisRate:1.54%    MPKI:0.01
PC:1a530     Total:268817      MisBP:1632   MisRate:0.61%    MPKI:0.01
PC:1b4bc     Total:26280      MisBP:1643   MisRate:6.25%    MPKI:0.01
PC:bb49a     Total:63140      MisBP:1669   MisRate:2.64%    MPKI:0.01
PC:420f4     Total:15227      MisBP:1717   MisRate:11.28%    MPKI:0.01
PC:3e006     Total:176685      MisBP:1841   MisRate:1.04%    MPKI:0.01
PC:46b22     Total:113166      MisBP:1868   MisRate:1.65%    MPKI:0.01
PC:46528     Total:105632      MisBP:1888   MisRate:1.79%    MPKI:0.01
PC:420e4     Total:65356      MisBP:1906   MisRate:2.92%    MPKI:0.01
PC:566d8     Total:92231      MisBP:1948   MisRate:2.11%    MPKI:0.01
PC:3aeb8     Total:312310      MisBP:2009   MisRate:0.64%    MPKI:0.01
PC:517fc     Total:113708      MisBP:2041   MisRate:1.79%    MPKI:0.01
PC:44750     Total:178304      MisBP:2084   MisRate:1.17%    MPKI:0.01
PC:3f422     Total:313873      MisBP:2093   MisRate:0.67%    MPKI:0.01
PC:1ad6e     Total:61200      MisBP:2107   MisRate:3.44%    MPKI:0.01
PC:bb5f0     Total:643893      MisBP:2112   MisRate:0.33%    MPKI:0.01
PC:1af30     Total:28827      MisBP:2214   MisRate:7.68%    MPKI:0.01
PC:ba766     Total:36764      MisBP:2221   MisRate:6.04%    MPKI:0.01
PC:bb724     Total:77169      MisBP:2293   MisRate:2.97%    MPKI:0.01
PC:53ec2     Total:867316      MisBP:2294   MisRate:0.26%    MPKI:0.01
PC:2fe8a     Total:3001      MisBP:2395   MisRate:79.81%    MPKI:0.01
PC:566fa     Total:6841      MisBP:2411   MisRate:35.24%    MPKI:0.01
PC:bb598     Total:40939      MisBP:2468   MisRate:6.03%    MPKI:0.01
PC:4dfb0     Total:166397      MisBP:2482   MisRate:1.49%    MPKI:0.01
PC:be812     Total:22421      MisBP:2580   MisRate:11.51%    MPKI:0.01
PC:1adbc     Total:36859      MisBP:2603   MisRate:7.06%    MPKI:0.01
PC:46b86     Total:5389      MisBP:2606   MisRate:48.36%    MPKI:0.01
PC:bb4a2     Total:58704      MisBP:2650   MisRate:4.51%    MPKI:0.01
PC:566f8     Total:7240      MisBP:2652   MisRate:36.63%    MPKI:0.01
PC:53e8a     Total:188308      MisBP:2672   MisRate:1.42%    MPKI:0.01
PC:1a666     Total:261767      MisBP:2695   MisRate:1.03%    MPKI:0.01
PC:46702     Total:122612      MisBP:2696   MisRate:2.20%    MPKI:0.01
PC:be9f0     Total:24941      MisBP:2762   MisRate:11.07%    MPKI:0.01
PC:2ec56     Total:675135      MisBP:2797   MisRate:0.41%    MPKI:0.01
PC:bb1f2     Total:168004      MisBP:2803   MisRate:1.67%    MPKI:0.01
PC:1b540     Total:33399      MisBP:2808   MisRate:8.41%    MPKI:0.01
PC:1b742     Total:175174      MisBP:2854   MisRate:1.63%    MPKI:0.01
PC:1a810     Total:42399      MisBP:2867   MisRate:6.76%    MPKI:0.01
PC:4a558     Total:240648      MisBP:2878   MisRate:1.20%    MPKI:0.01
PC:1b7de     Total:116381      MisBP:2884   MisRate:2.48%    MPKI:0.01
PC:1861c     Total:22024      MisBP:2992   MisRate:13.59%    MPKI:0.01
PC:1ad90     Total:60780      MisBP:3150   MisRate:5.18%    MPKI:0.01
PC:be7fa     Total:56311      MisBP:3160   MisRate:5.61%    MPKI:0.01
PC:3b472     Total:13767      MisBP:3252   MisRate:23.62%    MPKI:0.01
PC:bb584     Total:61423      MisBP:3269   MisRate:5.32%    MPKI:0.01
PC:2ebec     Total:61037      MisBP:3321   MisRate:5.44%    MPKI:0.01
PC:ba6e6     Total:173309      MisBP:3354   MisRate:1.94%    MPKI:0.01
PC:3ffa6     Total:121966      MisBP:3391   MisRate:2.78%    MPKI:0.01
PC:be788     Total:213612      MisBP:3417   MisRate:1.60%    MPKI:0.01
PC:4ba76     Total:173528      MisBP:3481   MisRate:2.01%    MPKI:0.01
PC:3f9b8     Total:465024      MisBP:3494   MisRate:0.75%    MPKI:0.01
PC:bb27a     Total:245749      MisBP:3563   MisRate:1.45%    MPKI:0.01
PC:babc8     Total:34255      MisBP:3577   MisRate:10.44%    MPKI:0.01
PC:bb592     Total:39739      MisBP:3638   MisRate:9.15%    MPKI:0.01
PC:2f6c2     Total:51974      MisBP:3650   MisRate:7.02%    MPKI:0.01
PC:4e216     Total:738700      MisBP:3676   MisRate:0.50%    MPKI:0.01
PC:185fe     Total:34997      MisBP:3719   MisRate:10.63%    MPKI:0.01
PC:ba880     Total:53719      MisBP:3746   MisRate:6.97%    MPKI:0.01
PC:2ec50     Total:682366      MisBP:3822   MisRate:0.56%    MPKI:0.01
PC:bb3aa     Total:168265      MisBP:3895   MisRate:2.31%    MPKI:0.01
PC:4bb0c     Total:495247      MisBP:4059   MisRate:0.82%    MPKI:0.01
PC:1b7e0     Total:116248      MisBP:4111   MisRate:3.54%    MPKI:0.01
PC:1a9d4     Total:48155      MisBP:4202   MisRate:8.73%    MPKI:0.01
PC:1a9b4     Total:49265      MisBP:4536   MisRate:9.21%    MPKI:0.01
PC:46b80     Total:106748      MisBP:4565   MisRate:4.28%    MPKI:0.01
PC:45aa4     Total:363699      MisBP:4678   MisRate:1.29%    MPKI:0.02
PC:51808     Total:556758      MisBP:4791   MisRate:0.86%    MPKI:0.02
PC:1a9a0     Total:53966      MisBP:4810   MisRate:8.91%    MPKI:0.02
PC:4b462     Total:16614      MisBP:4832   MisRate:29.08%    MPKI:0.02
PC:4bb5a     Total:161309      MisBP:4958   MisRate:3.07%    MPKI:0.02
PC:bab80     Total:141316      MisBP:5070   MisRate:3.59%    MPKI:0.02
PC:4b454     Total:33224      MisBP:5090   MisRate:15.32%    MPKI:0.02
PC:18606     Total:34687      MisBP:5189   MisRate:14.96%    MPKI:0.02
PC:51682     Total:663100      MisBP:5244   MisRate:0.79%    MPKI:0.02
PC:51658     Total:794854      MisBP:5313   MisRate:0.67%    MPKI:0.02
PC:2ebf0     Total:60885      MisBP:5324   MisRate:8.74%    MPKI:0.02
PC:bb3b2     Total:149444      MisBP:5363   MisRate:3.59%    MPKI:0.02
PC:4c320     Total:33643      MisBP:5576   MisRate:16.57%    MPKI:0.02
PC:45ab2     Total:583338      MisBP:5609   MisRate:0.96%    MPKI:0.02
PC:1b778     Total:48593      MisBP:5732   MisRate:11.80%    MPKI:0.02
PC:566e2     Total:92029      MisBP:6197   MisRate:6.73%    MPKI:0.02
PC:3ce58     Total:176933      MisBP:6264   MisRate:3.54%    MPKI:0.02
PC:ba814     Total:126815      MisBP:7664   MisRate:6.04%    MPKI:0.02
PC:45d26     Total:224647      MisBP:7696   MisRate:3.43%    MPKI:0.02
PC:1b7a6     Total:91970      MisBP:8316   MisRate:9.04%    MPKI:0.03
PC:4e238     Total:190274      MisBP:8681   MisRate:4.56%    MPKI:0.03
PC:ba870     Total:134110      MisBP:8691   MisRate:6.48%    MPKI:0.03
PC:4bb96     Total:189995      MisBP:9386   MisRate:4.94%    MPKI:0.03
PC:bb38c     Total:226142      MisBP:9521   MisRate:4.21%    MPKI:0.03
PC:1b77e     Total:196491      MisBP:9783   MisRate:4.98%    MPKI:0.03
PC:bb5fc     Total:87955      MisBP:9929   MisRate:11.29%    MPKI:0.03
PC:be754     Total:230787      MisBP:10257   MisRate:4.44%    MPKI:0.03
PC:517e4     Total:153066      MisBP:10572   MisRate:6.91%    MPKI:0.03
PC:be6f0     Total:264395      MisBP:10582   MisRate:4.00%    MPKI:0.03
PC:4bb22     Total:480910      MisBP:11339   MisRate:2.36%    MPKI:0.04
PC:51676     Total:821281      MisBP:12314   MisRate:1.50%    MPKI:0.04
PC:4bbb0     Total:4396498      MisBP:12408   MisRate:0.28%    MPKI:0.04
PC:1a52a     Total:336097      MisBP:12794   MisRate:3.81%    MPKI:0.04
PC:56700     Total:490860      MisBP:14304   MisRate:2.91%    MPKI:0.05
PC:45ac6     Total:210210      MisBP:15187   MisRate:7.22%    MPKI:0.05
PC:660f0     Total:393671      MisBP:16027   MisRate:4.07%    MPKI:0.05
PC:4badc     Total:176285      MisBP:17596   MisRate:9.98%    MPKI:0.06
PC:5165c     Total:673321      MisBP:18052   MisRate:2.68%    MPKI:0.06
PC:51664     Total:684390      MisBP:19648   MisRate:2.87%    MPKI:0.06
PC:1b770     Total:172468      MisBP:21871   MisRate:12.68%    MPKI:0.07
PC:44762     Total:181016      MisBP:24196   MisRate:13.37%    MPKI:0.08
PC:4b420     Total:245341      MisBP:24576   MisRate:10.02%    MPKI:0.08
PC:be6da     Total:450878      MisBP:27041   MisRate:6.00%    MPKI:0.09
PC:bf94e     Total:1266565      MisBP:37027   MisRate:2.92%    MPKI:0.12
PC:4b426     Total:304330      MisBP:37161   MisRate:12.21%    MPKI:0.12
PC:660fc     Total:820571      MisBP:37223   MisRate:4.54%    MPKI:0.12
PC:bb5f6     Total:705996      MisBP:43759   MisRate:6.20%    MPKI:0.14
PC:45a96     Total:534874      MisBP:51158   MisRate:9.56%    MPKI:0.17
PC:660da     Total:702860      MisBP:57456   MisRate:8.17%    MPKI:0.19
PC:465be     Total:70989      MisBP:59151   MisRate:83.32%    MPKI:0.19
PC:4baee     Total:599882      MisBP:66786   MisRate:11.13%    MPKI:0.22
PC:660e4     Total:1197361      MisBP:66980   MisRate:5.59%    MPKI:0.22
PC:465b0     Total:85391      MisBP:68349   MisRate:80.04%    MPKI:0.22
PC:4a5b2     Total:455283      MisBP:68619   MisRate:15.07%    MPKI:0.22
PC:4bb82     Total:4486740      MisBP:100324   MisRate:2.24%    MPKI:0.32
PC:4bb84     Total:4468978      MisBP:102808   MisRate:2.30%    MPKI:0.33
PC:4bbaa     Total:4399951      MisBP:156380   MisRate:3.55%    MPKI:0.50
PC:bf94a     Total:1219164      MisBP:179982   MisRate:14.76%    MPKI:0.58
PC:4bbd8     Total:4060050      MisBP:312427   MisRate:7.70%    MPKI:1.01
PC:4bbda     Total:3539821      MisBP:313241   MisRate:8.85%    MPKI:1.01
PC:4bbf0     Total:2244706      MisBP:329273   MisRate:14.67%    MPKI:1.06
Totfetch:577811762  TotInsts:310000002  TotMis : inf%   MPKI : 9.19
=============finish sim!!!!!!=============
Done running SimPoint!
