Global frequency set at 1000000000000 ticks per second
 Register [printBranch()] ExitCallback !!!!!!! 
gem5 Simulator System.  https://www.gem5.org
gem5 is copyrighted software; use the --copyright option for details.

gem5 version 22.0.0.2
gem5 compiled Sep  7 2022 00:42:18
gem5 started Sep  7 2022 04:40:35
gem5 executing on a100, pid 2788888
command line: /data/zxf/gem5/gem5-prof/build/ARM/gem5.fast --outdir=/data/zxf/checkpoint/spec2006/445.gobmk/prof/gobmk_ckp_10 /data/zxf/gem5/gem5-prof/configs/example/se.py --cpu-type O3CPU --cpu-clock 1GHz --num-cpu 1 --caches --l2cache --l1i_size 32kB --l1d_size 32kB --l2_size 1MB --l1i_assoc 8 --l1d_assoc 8 --l2_assoc 16 --cacheline_size 64 --mem-type DDR3_2133_8x8 --mem-size 16GB --l1d-hwp-type=BOPPrefetcher --restore-simpoint-checkpoint -r 10 --checkpoint-dir /data/zxf/checkpoint/spec2006/445.gobmk/ckpt -i 13x13.tst -c gobmk_base.gcc41-64bit -o '--quiet --mode gtp'

info: Standard input is not a terminal, disabling listeners.
Resuming from /data/zxf/checkpoint/spec2006/445.gobmk/ckpt/cpt.simpoint_09_inst_201590000000_weight_0.097345_interval_300000000_warmup_10000000
Resuming from SimPoint #9, start_inst:201590000000, weight:0.097345, interval:300000000, warmup:10000000
Switch at curTick count:10000
Switched CPUS @ tick 136310848232500
[(<m5.objects.ArmCPU.ArmAtomicSimpleCPU object at 0x7fc27b06abb0>, <m5.objects.ArmCPU.ArmO3CPU object at 0x7fc27b083e20>)]
switching cpus



+++++++++++++++++++++++++zxf print simpoint+++++++++++++++++++++++++++
Warmed up! Dumping and resetting stats!


=============start sim!!!!!!=============
PC:7c3ae     Total:9      MisBP:0   MisRate:0.00%    MPKI:0.00
PC:3f2a8     Total:52      MisBP:0   MisRate:0.00%    MPKI:0.00
PC:161bc     Total:13705      MisBP:0   MisRate:0.00%    MPKI:0.00
PC:3f2ac     Total:52      MisBP:0   MisRate:0.00%    MPKI:0.00
PC:161c0     Total:13092      MisBP:0   MisRate:0.00%    MPKI:0.00
PC:7c3aa     Total:10      MisBP:0   MisRate:0.00%    MPKI:0.00
PC:3ea48     Total:152127      MisBP:0   MisRate:0.00%    MPKI:0.00
PC:7cc12     Total:7      MisBP:0   MisRate:0.00%    MPKI:0.00
PC:3f2b0     Total:52      MisBP:0   MisRate:0.00%    MPKI:0.00
PC:161c4     Total:13092      MisBP:0   MisRate:0.00%    MPKI:0.00
PC:7cc0a     Total:22      MisBP:0   MisRate:0.00%    MPKI:0.00
PC:15960     Total:108007      MisBP:0   MisRate:0.00%    MPKI:0.00
PC:3ea4c     Total:15078      MisBP:0   MisRate:0.00%    MPKI:0.00
PC:3f2b4     Total:60      MisBP:0   MisRate:0.00%    MPKI:0.00
PC:161c8     Total:13092      MisBP:0   MisRate:0.00%    MPKI:0.00
PC:7c3b2     Total:9      MisBP:0   MisRate:0.00%    MPKI:0.00
PC:3ea50     Total:15077      MisBP:0   MisRate:0.00%    MPKI:0.00
PC:7cc18     Total:7      MisBP:0   MisRate:0.00%    MPKI:0.00
PC:3f2b6     Total:60      MisBP:0   MisRate:0.00%    MPKI:0.00
PC:7c3a0     Total:48      MisBP:0   MisRate:0.00%    MPKI:0.00
PC:7c39e     Total:48      MisBP:0   MisRate:0.00%    MPKI:0.00
PC:3ea3c     Total:354      MisBP:0   MisRate:0.00%    MPKI:0.00
PC:16d04     Total:1573      MisBP:0   MisRate:0.00%    MPKI:0.00
PC:3fdf0     Total:13090      MisBP:0   MisRate:0.00%    MPKI:0.00
PC:316de     Total:970      MisBP:0   MisRate:0.00%    MPKI:0.00
PC:7cc04     Total:22      MisBP:0   MisRate:0.00%    MPKI:0.00
PC:3f2a2     Total:85      MisBP:0   MisRate:0.00%    MPKI:0.00
PC:161b6     Total:13706      MisBP:0   MisRate:0.00%    MPKI:0.00
PC:161ca     Total:13092      MisBP:0   MisRate:0.00%    MPKI:0.00
PC:3ea3e     Total:4205      MisBP:0   MisRate:0.00%    MPKI:0.00
PC:7cc06     Total:22      MisBP:0   MisRate:0.00%    MPKI:0.00
PC:161b8     Total:13706      MisBP:0   MisRate:0.00%    MPKI:0.00
PC:15954     Total:86644      MisBP:0   MisRate:0.00%    MPKI:0.00
PC:3ea40     Total:3872      MisBP:0   MisRate:0.00%    MPKI:0.00
PC:41684     Total:681      MisBP:0   MisRate:0.00%    MPKI:0.00
PC:18598     Total:1207      MisBP:0   MisRate:0.00%    MPKI:0.00
PC:36bfe     Total:473      MisBP:0   MisRate:0.00%    MPKI:0.00
PC:3ea6a     Total:14757      MisBP:0   MisRate:0.00%    MPKI:0.00
PC:161d8     Total:12922      MisBP:0   MisRate:0.00%    MPKI:0.00
PC:3f2c8     Total:5      MisBP:0   MisRate:0.00%    MPKI:0.00
PC:161dc     Total:12922      MisBP:0   MisRate:0.00%    MPKI:0.00
PC:3ea64     Total:14764      MisBP:0   MisRate:0.00%    MPKI:0.00
PC:161de     Total:12922      MisBP:0   MisRate:0.00%    MPKI:0.00
PC:3f2ce     Total:5      MisBP:0   MisRate:0.00%    MPKI:0.00
PC:161e2     Total:12920      MisBP:0   MisRate:0.00%    MPKI:0.00
PC:7c3cc     Total:1      MisBP:0   MisRate:0.00%    MPKI:0.00
PC:1597e     Total:132264      MisBP:0   MisRate:0.00%    MPKI:0.00
PC:3ea5c     Total:15059      MisBP:0   MisRate:0.00%    MPKI:0.00
PC:161e6     Total:12920      MisBP:0   MisRate:0.00%    MPKI:0.00
PC:15982     Total:132264      MisBP:0   MisRate:0.00%    MPKI:0.00
PC:3ea6e     Total:14714      MisBP:0   MisRate:0.00%    MPKI:0.00
PC:3f2d6     Total:5      MisBP:0   MisRate:0.00%    MPKI:0.00
PC:161ea     Total:29532      MisBP:0   MisRate:0.00%    MPKI:0.00
PC:15986     Total:132263      MisBP:0   MisRate:0.00%    MPKI:0.00
PC:3ea72     Total:14657      MisBP:0   MisRate:0.00%    MPKI:0.00
PC:3f2d8     Total:5      MisBP:0   MisRate:0.00%    MPKI:0.00
PC:7c3ba     Total:6      MisBP:0   MisRate:0.00%    MPKI:0.00
PC:7c3b4     Total:9      MisBP:0   MisRate:0.00%    MPKI:0.00
PC:3ea52     Total:15069      MisBP:0   MisRate:0.00%    MPKI:0.00
PC:7cc1c     Total:7      MisBP:0   MisRate:0.00%    MPKI:0.00
PC:3f2ba     Total:34      MisBP:0   MisRate:0.00%    MPKI:0.00
PC:161ce     Total:13090      MisBP:0   MisRate:0.00%    MPKI:0.00
PC:7cc1e     Total:13      MisBP:0   MisRate:0.00%    MPKI:0.00
PC:3f2bc     Total:34      MisBP:0   MisRate:0.00%    MPKI:0.00
PC:161d0     Total:13090      MisBP:0   MisRate:0.00%    MPKI:0.00
PC:161b4     Total:13707      MisBP:0   MisRate:0.00%    MPKI:0.00
PC:1596c     Total:107599      MisBP:0   MisRate:0.00%    MPKI:0.00
PC:3ea58     Total:15060      MisBP:0   MisRate:0.00%    MPKI:0.00
PC:3f2be     Total:34      MisBP:0   MisRate:0.00%    MPKI:0.00
PC:161d2     Total:13090      MisBP:0   MisRate:0.00%    MPKI:0.00
PC:3f2c0     Total:27      MisBP:0   MisRate:0.00%    MPKI:0.00
PC:161d4     Total:13090      MisBP:0   MisRate:0.00%    MPKI:0.00
PC:7c3be     Total:6      MisBP:0   MisRate:0.00%    MPKI:0.00
PC:15970     Total:107598      MisBP:0   MisRate:0.00%    MPKI:0.00
PC:16cf2     Total:1952      MisBP:0   MisRate:0.00%    MPKI:0.00
PC:3fdda     Total:15172      MisBP:0   MisRate:0.00%    MPKI:0.00
PC:1857e     Total:1346      MisBP:0   MisRate:0.00%    MPKI:0.00
PC:316c8     Total:1586      MisBP:0   MisRate:0.00%    MPKI:0.00
PC:48436     Total:593      MisBP:0   MisRate:0.00%    MPKI:0.00
PC:3f28e     Total:138      MisBP:0   MisRate:0.00%    MPKI:0.00
PC:161a2     Total:13700      MisBP:0   MisRate:0.00%    MPKI:0.00
PC:7c38c     Total:21      MisBP:0   MisRate:0.00%    MPKI:0.00
PC:1593e     Total:65907      MisBP:0   MisRate:0.00%    MPKI:0.00
PC:3ea2a     Total:10385      MisBP:0   MisRate:0.00%    MPKI:0.00
PC:1593a     Total:65908      MisBP:0   MisRate:0.00%    MPKI:0.00
PC:3fdde     Total:15172      MisBP:0   MisRate:0.00%    MPKI:0.00
PC:36be8     Total:477      MisBP:0   MisRate:0.00%    MPKI:0.00
PC:316cc     Total:1528      MisBP:0   MisRate:0.00%    MPKI:0.00
PC:4843a     Total:3536      MisBP:0   MisRate:0.00%    MPKI:0.00
PC:7cbf4     Total:22      MisBP:0   MisRate:0.00%    MPKI:0.00
PC:3f292     Total:137      MisBP:0   MisRate:0.00%    MPKI:0.00
PC:161a6     Total:13700      MisBP:0   MisRate:0.00%    MPKI:0.00
PC:7c390     Total:49      MisBP:0   MisRate:0.00%    MPKI:0.00
PC:3ea24     Total:1483      MisBP:0   MisRate:0.00%    MPKI:0.00
PC:7caa0     Total:27      MisBP:0   MisRate:0.00%    MPKI:0.00
PC:16ce8     Total:1953      MisBP:0   MisRate:0.00%    MPKI:0.00
PC:3fdd4     Total:15175      MisBP:0   MisRate:0.00%    MPKI:0.00
PC:36bde     Total:477      MisBP:0   MisRate:0.00%    MPKI:0.00
PC:316c2     Total:1641      MisBP:0   MisRate:0.00%    MPKI:0.00
PC:3f288     Total:137      MisBP:0   MisRate:0.00%    MPKI:0.00
PC:1619c     Total:13701      MisBP:0   MisRate:0.00%    MPKI:0.00
PC:15938     Total:65909      MisBP:0   MisRate:0.00%    MPKI:0.00
PC:3ea2e     Total:10392      MisBP:0   MisRate:0.00%    MPKI:0.00
PC:16cec     Total:1953      MisBP:0   MisRate:0.00%    MPKI:0.00
PC:3fdd8     Total:15175      MisBP:0   MisRate:0.00%    MPKI:0.00
PC:316c6     Total:1586      MisBP:0   MisRate:0.00%    MPKI:0.00
PC:48432     Total:707      MisBP:0   MisRate:0.00%    MPKI:0.00
PC:7cbec     Total:22      MisBP:0   MisRate:0.00%    MPKI:0.00
PC:3f28a     Total:138      MisBP:0   MisRate:0.00%    MPKI:0.00
PC:1619e     Total:13701      MisBP:0   MisRate:0.00%    MPKI:0.00
PC:7c388     Total:21      MisBP:0   MisRate:0.00%    MPKI:0.00
PC:1594c     Total:71254      MisBP:0   MisRate:0.00%    MPKI:0.00
PC:3ea36     Total:354      MisBP:0   MisRate:0.00%    MPKI:0.00
PC:16cfe     Total:1871      MisBP:0   MisRate:0.00%    MPKI:0.00
PC:3fdea     Total:13091      MisBP:0   MisRate:0.00%    MPKI:0.00
PC:36bf4     Total:474      MisBP:0   MisRate:0.00%    MPKI:0.00
PC:316d8     Total:533      MisBP:0   MisRate:0.00%    MPKI:0.00
PC:7cbfe     Total:22      MisBP:0   MisRate:0.00%    MPKI:0.00
PC:3f29c     Total:85      MisBP:0   MisRate:0.00%    MPKI:0.00
PC:161b0     Total:13707      MisBP:0   MisRate:0.00%    MPKI:0.00
PC:7c39a     Total:49      MisBP:0   MisRate:0.00%    MPKI:0.00
PC:1594a     Total:71258      MisBP:0   MisRate:0.00%    MPKI:0.00
PC:3ea38     Total:354      MisBP:0   MisRate:0.00%    MPKI:0.00
PC:1606a     Total:29181      MisBP:0   MisRate:0.00%    MPKI:0.00
PC:7cab8     Total:27      MisBP:0   MisRate:0.00%    MPKI:0.00
PC:16d00     Total:1573      MisBP:0   MisRate:0.00%    MPKI:0.00
PC:3fdec     Total:13091      MisBP:0   MisRate:0.00%    MPKI:0.00
PC:316da     Total:533      MisBP:0   MisRate:0.00%    MPKI:0.00
PC:7cc02     Total:22      MisBP:0   MisRate:0.00%    MPKI:0.00
PC:3f2a0     Total:85      MisBP:0   MisRate:0.00%    MPKI:0.00
PC:15946     Total:66399      MisBP:0   MisRate:0.00%    MPKI:0.00
PC:7caae     Total:27      MisBP:0   MisRate:0.00%    MPKI:0.00
PC:16cf6     Total:1873      MisBP:0   MisRate:0.00%    MPKI:0.00
PC:3fde2     Total:15170      MisBP:0   MisRate:0.00%    MPKI:0.00
PC:36bec     Total:477      MisBP:0   MisRate:0.00%    MPKI:0.00
PC:316d0     Total:533      MisBP:0   MisRate:0.00%    MPKI:0.00
PC:3f296     Total:137      MisBP:0   MisRate:0.00%    MPKI:0.00
PC:161aa     Total:13657      MisBP:0   MisRate:0.00%    MPKI:0.00
PC:7c394     Total:49      MisBP:0   MisRate:0.00%    MPKI:0.00
PC:161ec     Total:29532      MisBP:0   MisRate:0.00%    MPKI:0.00
PC:3fde6     Total:13098      MisBP:0   MisRate:0.00%    MPKI:0.00
PC:41676     Total:853      MisBP:0   MisRate:0.00%    MPKI:0.00
PC:1858a     Total:1231      MisBP:0   MisRate:0.00%    MPKI:0.00
PC:36bf0     Total:474      MisBP:0   MisRate:0.00%    MPKI:0.00
PC:316d4     Total:533      MisBP:0   MisRate:0.00%    MPKI:0.00
PC:7cbfc     Total:22      MisBP:0   MisRate:0.00%    MPKI:0.00
PC:161ae     Total:13657      MisBP:0   MisRate:0.00%    MPKI:0.00
PC:7c398     Total:49      MisBP:0   MisRate:0.00%    MPKI:0.00
PC:2e210     Total:486      MisBP:0   MisRate:0.00%    MPKI:0.00
PC:1bac2     Total:233      MisBP:0   MisRate:0.00%    MPKI:0.00
PC:30338     Total:64      MisBP:0   MisRate:0.00%    MPKI:0.00
PC:7b85c     Total:13      MisBP:0   MisRate:0.00%    MPKI:0.00
PC:14e0e     Total:67400      MisBP:0   MisRate:0.00%    MPKI:0.00
PC:47efa     Total:588      MisBP:0   MisRate:0.00%    MPKI:0.00
PC:33684     Total:315      MisBP:0   MisRate:0.00%    MPKI:0.00
PC:15834     Total:33431      MisBP:0   MisRate:0.00%    MPKI:0.00
PC:48b42     Total:5      MisBP:0   MisRate:0.00%    MPKI:0.00
PC:1fa56     Total:1285      MisBP:0   MisRate:0.00%    MPKI:0.00
PC:478b6     Total:26122      MisBP:0   MisRate:0.00%    MPKI:0.00
PC:42a86     Total:1618      MisBP:0   MisRate:0.00%    MPKI:0.00
PC:7c8b2     Total:148      MisBP:0   MisRate:0.00%    MPKI:0.00
PC:15e64     Total:29483      MisBP:0   MisRate:0.00%    MPKI:0.00
PC:2f71c     Total:2      MisBP:0   MisRate:0.00%    MPKI:0.00
PC:1aea6     Total:15767      MisBP:0   MisRate:0.00%    MPKI:0.00
PC:2f720     Total:2      MisBP:0   MisRate:0.00%    MPKI:0.00
PC:1aeaa     Total:15767      MisBP:0   MisRate:0.00%    MPKI:0.00
PC:7c8ba     Total:97      MisBP:0   MisRate:0.00%    MPKI:0.00
PC:3346c     Total:150      MisBP:0   MisRate:0.00%    MPKI:0.00
PC:4d8a2c     Total:1      MisBP:0   MisRate:0.00%    MPKI:0.00
PC:31f70     Total:79      MisBP:0   MisRate:0.00%    MPKI:0.00
PC:989be     Total:25      MisBP:0   MisRate:0.00%    MPKI:0.00
PC:1baba     Total:239      MisBP:0   MisRate:0.00%    MPKI:0.00
PC:30330     Total:553      MisBP:0   MisRate:0.00%    MPKI:0.00
PC:7b854     Total:28      MisBP:0   MisRate:0.00%    MPKI:0.00
PC:14e06     Total:67404      MisBP:0   MisRate:0.00%    MPKI:0.00
PC:47ce2     Total:54      MisBP:0   MisRate:0.00%    MPKI:0.00
PC:15e6c     Total:29530      MisBP:0   MisRate:0.00%    MPKI:0.00
PC:478b0     Total:13913      MisBP:0   MisRate:0.00%    MPKI:0.00
PC:1babe     Total:239      MisBP:0   MisRate:0.00%    MPKI:0.00
PC:30334     Total:268      MisBP:0   MisRate:0.00%    MPKI:0.00
PC:1bac0     Total:233      MisBP:0   MisRate:0.00%    MPKI:0.00
PC:7b85a     Total:13      MisBP:0   MisRate:0.00%    MPKI:0.00
PC:14e0c     Total:67402      MisBP:0   MisRate:0.00%    MPKI:0.00
PC:47ce8     Total:54      MisBP:0   MisRate:0.00%    MPKI:0.00
PC:33472     Total:150      MisBP:0   MisRate:0.00%    MPKI:0.00
PC:2e65c     Total:249      MisBP:0   MisRate:0.00%    MPKI:0.00
PC:48b58     Total:9      MisBP:0   MisRate:0.00%    MPKI:0.00
PC:1fa6c     Total:969      MisBP:0   MisRate:0.00%    MPKI:0.00
PC:2e658     Total:249      MisBP:0   MisRate:0.00%    MPKI:0.00
PC:47ae2     Total:40373      MisBP:0   MisRate:0.00%    MPKI:0.00
PC:47f14     Total:564      MisBP:0   MisRate:0.00%    MPKI:0.00
PC:3369e     Total:308      MisBP:0   MisRate:0.00%    MPKI:0.00
PC:2e22a     Total:474      MisBP:0   MisRate:0.00%    MPKI:0.00
PC:199b4     Total:13550      MisBP:0   MisRate:0.00%    MPKI:0.00
PC:42aa0     Total:3034      MisBP:0   MisRate:0.00%    MPKI:0.00
PC:1584a     Total:30351      MisBP:0   MisRate:0.00%    MPKI:0.00
PC:47ae6     Total:40373      MisBP:0   MisRate:0.00%    MPKI:0.00
PC:2e22e     Total:474      MisBP:0   MisRate:0.00%    MPKI:0.00
PC:42aa4     Total:539      MisBP:0   MisRate:0.00%    MPKI:0.00
PC:2e660     Total:249      MisBP:0   MisRate:0.00%    MPKI:0.00
PC:2e66e     Total:216      MisBP:0   MisRate:0.00%    MPKI:0.00
PC:3e950     Total:5721      MisBP:0   MisRate:0.00%    MPKI:0.00
PC:15864     Total:29219      MisBP:0   MisRate:0.00%    MPKI:0.00
PC:19dfc     Total:331      MisBP:0   MisRate:0.00%    MPKI:0.00
PC:42a92     Total:726      MisBP:0   MisRate:0.00%    MPKI:0.00
PC:1aeae     Total:15767      MisBP:0   MisRate:0.00%    MPKI:0.00
PC:47f06     Total:576      MisBP:0   MisRate:0.00%    MPKI:0.00
PC:33690     Total:315      MisBP:0   MisRate:0.00%    MPKI:0.00
PC:3e92c     Total:8867      MisBP:0   MisRate:0.00%    MPKI:0.00
PC:15840     Total:30355      MisBP:0   MisRate:0.00%    MPKI:0.00
PC:48b4e     Total:7      MisBP:0   MisRate:0.00%    MPKI:0.00
PC:1fa62     Total:1282      MisBP:0   MisRate:0.00%    MPKI:0.00
PC:199a6     Total:13961      MisBP:0   MisRate:0.00%    MPKI:0.00
PC:478ae     Total:13913      MisBP:0   MisRate:0.00%    MPKI:0.00
PC:15844     Total:30353      MisBP:0   MisRate:0.00%    MPKI:0.00
PC:199aa     Total:13550      MisBP:0   MisRate:0.00%    MPKI:0.00
PC:42a96     Total:3065      MisBP:0   MisRate:0.00%    MPKI:0.00
PC:2e652     Total:262      MisBP:0   MisRate:0.00%    MPKI:0.00
PC:47ade     Total:40523      MisBP:0   MisRate:0.00%    MPKI:0.00
PC:47f10     Total:576      MisBP:0   MisRate:0.00%    MPKI:0.00
PC:3369a     Total:308      MisBP:0   MisRate:0.00%    MPKI:0.00
PC:3e936     Total:8867      MisBP:0   MisRate:0.00%    MPKI:0.00
PC:3ea84     Total:11096      MisBP:0   MisRate:0.00%    MPKI:0.00
PC:161f4     Total:29330      MisBP:0   MisRate:0.00%    MPKI:0.00
PC:7c3de     Total:1      MisBP:0   MisRate:0.00%    MPKI:0.00
PC:3ea7c     Total:14602      MisBP:0   MisRate:0.00%    MPKI:0.00
PC:48488     Total:361      MisBP:0   MisRate:0.00%    MPKI:0.00
PC:3f2e2     Total:51      MisBP:0   MisRate:0.00%    MPKI:0.00
PC:161f6     Total:29338      MisBP:0   MisRate:0.00%    MPKI:0.00
PC:15992     Total:132267      MisBP:0   MisRate:0.00%    MPKI:0.00
PC:3ea7e     Total:11111      MisBP:0   MisRate:0.00%    MPKI:0.00
PC:7c3e6     Total:1      MisBP:0   MisRate:0.00%    MPKI:0.00
PC:3f2e0     Total:5      MisBP:0   MisRate:0.00%    MPKI:0.00
PC:48494     Total:1125      MisBP:0   MisRate:0.00%    MPKI:0.00
PC:1aeb4     Total:15767      MisBP:0   MisRate:0.00%    MPKI:0.00
PC:2f72a     Total:329      MisBP:0   MisRate:0.00%    MPKI:0.00
PC:9eea0     Total:32340      MisBP:0   MisRate:0.00%    MPKI:0.00
PC:5cd10     Total:5      MisBP:0   MisRate:0.00%    MPKI:0.00
PC:4849a     Total:361      MisBP:0   MisRate:0.00%    MPKI:0.00
PC:165e4     Total:12793      MisBP:0   MisRate:0.00%    MPKI:0.00
PC:3ee6c     Total:6367      MisBP:0   MisRate:0.00%    MPKI:0.00
PC:3ea78     Total:14608      MisBP:0   MisRate:0.00%    MPKI:0.00
PC:7c3d6     Total:1      MisBP:0   MisRate:0.00%    MPKI:0.00
PC:3ea74     Total:14653      MisBP:0   MisRate:0.00%    MPKI:0.00
PC:161ee     Total:29532      MisBP:0   MisRate:0.00%    MPKI:0.00
PC:1598a     Total:132250      MisBP:0   MisRate:0.00%    MPKI:0.00
PC:3ea76     Total:14652      MisBP:0   MisRate:0.00%    MPKI:0.00
PC:3f2dc     Total:5      MisBP:0   MisRate:0.00%    MPKI:0.00
PC:161f0     Total:29330      MisBP:0   MisRate:0.00%    MPKI:0.00
PC:7c3da     Total:1      MisBP:0   MisRate:0.00%    MPKI:0.00
PC:1aeb8     Total:15767      MisBP:0   MisRate:0.00%    MPKI:0.00
PC:3171e     Total:389      MisBP:0   MisRate:0.00%    MPKI:0.00
PC:3f2e6     Total:54      MisBP:0   MisRate:0.00%    MPKI:0.00
PC:161fa     Total:29337      MisBP:0   MisRate:0.00%    MPKI:0.00
PC:7c3e4     Total:1      MisBP:0   MisRate:0.00%    MPKI:0.00
PC:15996     Total:132265      MisBP:0   MisRate:0.00%    MPKI:0.00
PC:3ea82     Total:11111      MisBP:0   MisRate:0.00%    MPKI:0.00
PC:31724     Total:638      MisBP:0   MisRate:0.00%    MPKI:0.00
PC:31726     Total:638      MisBP:0   MisRate:0.00%    MPKI:0.00
PC:4d8a28     Total:1      MisBP:0   MisRate:0.00%    MPKI:0.00
PC:14dc6     Total:22889      MisBP:0   MisRate:0.00%    MPKI:0.00
PC:47ca2     Total:372      MisBP:0   MisRate:0.00%    MPKI:0.00
PC:3342c     Total:166      MisBP:0   MisRate:0.00%    MPKI:0.00
PC:1ba7c     Total:1360      MisBP:0   MisRate:0.00%    MPKI:0.00
PC:1bab4     Total:17      MisBP:0   MisRate:0.00%    MPKI:0.00
PC:3032a     Total:554      MisBP:0   MisRate:0.00%    MPKI:0.00
PC:14e00     Total:67418      MisBP:0   MisRate:0.00%    MPKI:0.00
PC:47cdc     Total:54      MisBP:0   MisRate:0.00%    MPKI:0.00
PC:33466     Total:151      MisBP:0   MisRate:0.00%    MPKI:0.00
PC:3deb2     Total:2      MisBP:0   MisRate:0.00%    MPKI:0.00
PC:31f6c     Total:79      MisBP:0   MisRate:0.00%    MPKI:0.00
PC:989ba     Total:26      MisBP:0   MisRate:0.00%    MPKI:0.00
PC:1bab8     Total:17      MisBP:0   MisRate:0.00%    MPKI:0.00
PC:3032e     Total:554      MisBP:0   MisRate:0.00%    MPKI:0.00
PC:7b852     Total:28      MisBP:0   MisRate:0.00%    MPKI:0.00
PC:14e04     Total:67417      MisBP:0   MisRate:0.00%    MPKI:0.00
PC:47ce0     Total:54      MisBP:0   MisRate:0.00%    MPKI:0.00
PC:3346a     Total:150      MisBP:0   MisRate:0.00%    MPKI:0.00
PC:302e2     Total:15154      MisBP:0   MisRate:0.00%    MPKI:0.00
PC:2f72e     Total:1645      MisBP:0   MisRate:0.00%    MPKI:0.00
PC:9eea4     Total:32340      MisBP:0   MisRate:0.00%    MPKI:0.00
PC:1ba5a     Total:83248      MisBP:0   MisRate:0.00%    MPKI:0.00
PC:302d0     Total:15157      MisBP:0   MisRate:0.00%    MPKI:0.00
PC:1ba5e     Total:82150      MisBP:0   MisRate:0.00%    MPKI:0.00
PC:302d4     Total:15157      MisBP:0   MisRate:0.00%    MPKI:0.00
PC:1ba64     Total:62985      MisBP:0   MisRate:0.00%    MPKI:0.00
PC:302da     Total:15154      MisBP:0   MisRate:0.00%    MPKI:0.00
PC:16052     Total:3370      MisBP:0   MisRate:0.00%    MPKI:0.00
PC:1ba70     Total:5353      MisBP:0   MisRate:0.00%    MPKI:0.00
PC:302e6     Total:15153      MisBP:0   MisRate:0.00%    MPKI:0.00
PC:302ea     Total:15034      MisBP:0   MisRate:0.00%    MPKI:0.00
PC:1ba78     Total:1360      MisBP:0   MisRate:0.00%    MPKI:0.00
PC:302ee     Total:15022      MisBP:0   MisRate:0.00%    MPKI:0.00
PC:1ba7a     Total:1360      MisBP:0   MisRate:0.00%    MPKI:0.00
PC:302f0     Total:15020      MisBP:0   MisRate:0.00%    MPKI:0.00
PC:7b814     Total:2      MisBP:0   MisRate:0.00%    MPKI:0.00
PC:3f1f2     Total:532      MisBP:0   MisRate:0.00%    MPKI:0.00
PC:2f4ee     Total:44      MisBP:0   MisRate:0.00%    MPKI:0.00
PC:1ac78     Total:10647      MisBP:0   MisRate:0.00%    MPKI:0.00
PC:3ed0c     Total:14648      MisBP:0   MisRate:0.00%    MPKI:0.00
PC:15c20     Total:2598      MisBP:0   MisRate:0.00%    MPKI:0.00
PC:24ce6     Total:113340      MisBP:0   MisRate:0.00%    MPKI:0.00
PC:3f1ec     Total:539      MisBP:0   MisRate:0.00%    MPKI:0.00
PC:16100     Total:37013      MisBP:0   MisRate:0.00%    MPKI:0.00
PC:3f1ee     Total:532      MisBP:0   MisRate:0.00%    MPKI:0.00
PC:16102     Total:37010      MisBP:0   MisRate:0.00%    MPKI:0.00
PC:24cfc     Total:53231      MisBP:0   MisRate:0.00%    MPKI:0.00
PC:16106     Total:37010      MisBP:0   MisRate:0.00%    MPKI:0.00
PC:3f1f4     Total:532      MisBP:0   MisRate:0.00%    MPKI:0.00
PC:16108     Total:37007      MisBP:0   MisRate:0.00%    MPKI:0.00
PC:3e990     Total:3362      MisBP:0   MisRate:0.00%    MPKI:0.00
PC:1cdbc     Total:14515      MisBP:0   MisRate:0.00%    MPKI:0.00
PC:31632     Total:890      MisBP:0   MisRate:0.00%    MPKI:0.00
PC:3f1f8     Total:518      MisBP:0   MisRate:0.00%    MPKI:0.00
PC:1610c     Total:37006      MisBP:0   MisRate:0.00%    MPKI:0.00
PC:1f63e     Total:20      MisBP:0   MisRate:0.00%    MPKI:0.00
PC:15cf8     Total:4438      MisBP:0   MisRate:0.00%    MPKI:0.00
PC:2ed7c     Total:246      MisBP:0   MisRate:0.00%    MPKI:0.00
PC:5135cc     Total:4      MisBP:0   MisRate:0.00%    MPKI:0.00
PC:47ec6     Total:1341      MisBP:0   MisRate:0.00%    MPKI:0.00
PC:32588     Total:150      MisBP:0   MisRate:0.00%    MPKI:0.00
PC:98fd6     Total:252      MisBP:0   MisRate:0.00%    MPKI:0.00
PC:7b606     Total:1      MisBP:0   MisRate:0.00%    MPKI:0.00
PC:3dca4     Total:397      MisBP:0   MisRate:0.00%    MPKI:0.00
PC:31a14     Total:660      MisBP:0   MisRate:0.00%    MPKI:0.00
PC:3ed1e     Total:14582      MisBP:0   MisRate:0.00%    MPKI:0.00
PC:15c32     Total:2598      MisBP:0   MisRate:0.00%    MPKI:0.00
PC:2f4ea     Total:44      MisBP:0   MisRate:0.00%    MPKI:0.00
PC:1ac74     Total:10647      MisBP:0   MisRate:0.00%    MPKI:0.00
PC:3371a     Total:86      MisBP:0   MisRate:0.00%    MPKI:0.00
PC:47f90     Total:771      MisBP:0   MisRate:0.00%    MPKI:0.00
PC:1ad3e     Total:2590      MisBP:0   MisRate:0.00%    MPKI:0.00
PC:15cfc     Total:634      MisBP:0   MisRate:0.00%    MPKI:0.00
PC:1612c     Total:33834      MisBP:0   MisRate:0.00%    MPKI:0.00
PC:16124     Total:33837      MisBP:0   MisRate:0.00%    MPKI:0.00
PC:3164e     Total:662      MisBP:0   MisRate:0.00%    MPKI:0.00
PC:483bc     Total:429      MisBP:0   MisRate:0.00%    MPKI:0.00
PC:3f214     Total:318      MisBP:0   MisRate:0.00%    MPKI:0.00
PC:16128     Total:33835      MisBP:0   MisRate:0.00%    MPKI:0.00
PC:158c4     Total:70834      MisBP:0   MisRate:0.00%    MPKI:0.00
PC:483c0     Total:341      MisBP:0   MisRate:0.00%    MPKI:0.00
PC:48c24     Total:2      MisBP:0   MisRate:0.00%    MPKI:0.00
PC:1fb38     Total:2595      MisBP:0   MisRate:0.00%    MPKI:0.00
PC:3f210     Total:318      MisBP:0   MisRate:0.00%    MPKI:0.00
PC:483c4     Total:341      MisBP:0   MisRate:0.00%    MPKI:0.00
PC:48c28     Total:1      MisBP:0   MisRate:0.00%    MPKI:0.00
PC:1fb3c     Total:1914      MisBP:0   MisRate:0.00%    MPKI:0.00
PC:3f21c     Total:339      MisBP:0   MisRate:0.00%    MPKI:0.00
PC:16130     Total:33831      MisBP:0   MisRate:0.00%    MPKI:0.00
PC:483c8     Total:208      MisBP:0   MisRate:0.00%    MPKI:0.00
PC:3f220     Total:339      MisBP:0   MisRate:0.00%    MPKI:0.00
PC:16134     Total:34197      MisBP:0   MisRate:0.00%    MPKI:0.00
PC:1fb28     Total:121      MisBP:0   MisRate:0.00%    MPKI:0.00
PC:16110     Total:37005      MisBP:0   MisRate:0.00%    MPKI:0.00
PC:483a8     Total:470      MisBP:0   MisRate:0.00%    MPKI:0.00
PC:48c0c     Total:4      MisBP:0   MisRate:0.00%    MPKI:0.00
PC:1fb20     Total:121      MisBP:0   MisRate:0.00%    MPKI:0.00
PC:16114     Total:37004      MisBP:0   MisRate:0.00%    MPKI:0.00
PC:16118     Total:36998      MisBP:0   MisRate:0.00%    MPKI:0.00
PC:3e9a0     Total:6807      MisBP:0   MisRate:0.00%    MPKI:0.00
PC:483b0     Total:470      MisBP:0   MisRate:0.00%    MPKI:0.00
PC:1ad3a     Total:2590      MisBP:0   MisRate:0.00%    MPKI:0.00
PC:1611c     Total:33903      MisBP:0   MisRate:0.00%    MPKI:0.00
PC:3f20c     Total:318      MisBP:0   MisRate:0.00%    MPKI:0.00
PC:16120     Total:33844      MisBP:0   MisRate:0.00%    MPKI:0.00
PC:158bc     Total:34711      MisBP:0   MisRate:0.00%    MPKI:0.00
PC:3e9a8     Total:6807      MisBP:0   MisRate:0.00%    MPKI:0.00
PC:483b8     Total:468      MisBP:0   MisRate:0.00%    MPKI:0.00
PC:48c1c     Total:6      MisBP:0   MisRate:0.00%    MPKI:0.00
PC:1fb30     Total:114      MisBP:0   MisRate:0.00%    MPKI:0.00
PC:1ac52     Total:11738      MisBP:0   MisRate:0.00%    MPKI:0.00
PC:336f4     Total:250      MisBP:0   MisRate:0.00%    MPKI:0.00
PC:47f6a     Total:805      MisBP:0   MisRate:0.00%    MPKI:0.00
PC:3e5ac     Total:1      MisBP:0   MisRate:0.00%    MPKI:0.00
PC:154c0     Total:1592      MisBP:0   MisRate:0.00%    MPKI:0.00
PC:1f6e2     Total:4348      MisBP:0   MisRate:0.00%    MPKI:0.00
PC:3262c     Total:208      MisBP:0   MisRate:0.00%    MPKI:0.00
PC:9907a     Total:101      MisBP:0   MisRate:0.00%    MPKI:0.00
PC:15cd6     Total:892      MisBP:0   MisRate:0.00%    MPKI:0.00
PC:24cd6     Total:113249      MisBP:0   MisRate:0.00%    MPKI:0.00
PC:15cd4     Total:904      MisBP:0   MisRate:0.00%    MPKI:0.00
PC:1ad1a     Total:43326      MisBP:0   MisRate:0.00%    MPKI:0.00
PC:2ed5c     Total:73      MisBP:0   MisRate:0.00%    MPKI:0.00
PC:24cd8     Total:113247      MisBP:0   MisRate:0.00%    MPKI:0.00
PC:3ecfe     Total:14948      MisBP:0   MisRate:0.00%    MPKI:0.00
PC:15c12     Total:2662      MisBP:0   MisRate:0.00%    MPKI:0.00
PC:2f4ca     Total:44      MisBP:0   MisRate:0.00%    MPKI:0.00
PC:1ac54     Total:11301      MisBP:0   MisRate:0.00%    MPKI:0.00
PC:1ad1e     Total:41157      MisBP:0   MisRate:0.00%    MPKI:0.00
PC:3edbe     Total:10989      MisBP:0   MisRate:0.00%    MPKI:0.00
PC:1f6d8     Total:897      MisBP:0   MisRate:0.00%    MPKI:0.00
PC:99070     Total:101      MisBP:0   MisRate:0.00%    MPKI:0.00
PC:1ad0e     Total:44028      MisBP:0   MisRate:0.00%    MPKI:0.00
PC:2f4be     Total:44      MisBP:0   MisRate:0.00%    MPKI:0.00
PC:1ac48     Total:98407      MisBP:0   MisRate:0.00%    MPKI:0.00
PC:3edba     Total:12919      MisBP:0   MisRate:0.00%    MPKI:0.00
PC:24cce     Total:9373      MisBP:0   MisRate:0.00%    MPKI:0.00
PC:1ac4a     Total:98407      MisBP:0   MisRate:0.00%    MPKI:0.00
PC:2ed60     Total:73      MisBP:0   MisRate:0.00%    MPKI:0.00
PC:15cd2     Total:904      MisBP:0   MisRate:0.00%    MPKI:0.00
PC:24cd2     Total:113065      MisBP:0   MisRate:0.00%    MPKI:0.00
PC:1ac4e     Total:11738      MisBP:0   MisRate:0.00%    MPKI:0.00
PC:336f2     Total:250      MisBP:0   MisRate:0.00%    MPKI:0.00
PC:47f68     Total:805      MisBP:0   MisRate:0.00%    MPKI:0.00
PC:1f6e0     Total:893      MisBP:0   MisRate:0.00%    MPKI:0.00
PC:99078     Total:101      MisBP:0   MisRate:0.00%    MPKI:0.00
PC:1ad16     Total:43326      MisBP:0   MisRate:0.00%    MPKI:0.00
PC:3e5c0     Total:1      MisBP:0   MisRate:0.00%    MPKI:0.00
PC:47f76     Total:805      MisBP:0   MisRate:0.00%    MPKI:0.00
PC:1ad26     Total:41101      MisBP:0   MisRate:0.00%    MPKI:0.00
PC:3edd0     Total:7264      MisBP:0   MisRate:0.00%    MPKI:0.00
PC:15ce4     Total:816      MisBP:0   MisRate:0.00%    MPKI:0.00
PC:1ac60     Total:11301      MisBP:0   MisRate:0.00%    MPKI:0.00
PC:33704     Total:93      MisBP:0   MisRate:0.00%    MPKI:0.00
PC:47f7a     Total:805      MisBP:0   MisRate:0.00%    MPKI:0.00
PC:33708     Total:93      MisBP:0   MisRate:0.00%    MPKI:0.00
PC:47f7e     Total:775      MisBP:0   MisRate:0.00%    MPKI:0.00
PC:33700     Total:93      MisBP:0   MisRate:0.00%    MPKI:0.00
PC:1f6f6     Total:717      MisBP:0   MisRate:0.00%    MPKI:0.00
PC:3edd6     Total:9421      MisBP:0   MisRate:0.00%    MPKI:0.00
PC:15cea     Total:787      MisBP:0   MisRate:0.00%    MPKI:0.00
PC:3edda     Total:9421      MisBP:0   MisRate:0.00%    MPKI:0.00
PC:15cee     Total:787      MisBP:0   MisRate:0.00%    MPKI:0.00
PC:33714     Total:93      MisBP:0   MisRate:0.00%    MPKI:0.00
PC:47f8a     Total:771      MisBP:0   MisRate:0.00%    MPKI:0.00
PC:15cf6     Total:752      MisBP:0   MisRate:0.00%    MPKI:0.00
PC:47f74     Total:805      MisBP:0   MisRate:0.00%    MPKI:0.00
PC:1a91c     Total:656227      MisBP:0   MisRate:0.00%    MPKI:0.00
PC:24cdc     Total:113394      MisBP:0   MisRate:0.00%    MPKI:0.00
PC:2f4ce     Total:44      MisBP:0   MisRate:0.00%    MPKI:0.00
PC:1ac58     Total:11301      MisBP:0   MisRate:0.00%    MPKI:0.00
PC:336fc     Total:250      MisBP:0   MisRate:0.00%    MPKI:0.00
PC:47f72     Total:805      MisBP:0   MisRate:0.00%    MPKI:0.00
PC:15cde     Total:819      MisBP:0   MisRate:0.00%    MPKI:0.00
PC:336fe     Total:250      MisBP:0   MisRate:0.00%    MPKI:0.00
PC:3e9bc     Total:3649      MisBP:0   MisRate:0.00%    MPKI:0.00
PC:3e5b6     Total:1      MisBP:0   MisRate:0.00%    MPKI:0.00
PC:154ca     Total:1591      MisBP:0   MisRate:0.00%    MPKI:0.00
PC:1f6ec     Total:8632      MisBP:0   MisRate:0.00%    MPKI:0.00
PC:1ad22     Total:41156      MisBP:0   MisRate:0.00%    MPKI:0.00
PC:2ed64     Total:73      MisBP:0   MisRate:0.00%    MPKI:0.00
PC:1a920     Total:631566      MisBP:0   MisRate:0.00%    MPKI:0.00
PC:2f4d2     Total:44      MisBP:0   MisRate:0.00%    MPKI:0.00
PC:1ac5c     Total:11301      MisBP:0   MisRate:0.00%    MPKI:0.00
PC:7c364     Total:47      MisBP:0   MisRate:0.00%    MPKI:0.00
PC:3e9fc     Total:14929      MisBP:0   MisRate:0.00%    MPKI:0.00
PC:1ce28     Total:28      MisBP:0   MisRate:0.00%    MPKI:0.00
PC:3169e     Total:3490      MisBP:0   MisRate:0.00%    MPKI:0.00
PC:7cbc4     Total:12      MisBP:0   MisRate:0.00%    MPKI:0.00
PC:16176     Total:20160      MisBP:0   MisRate:0.00%    MPKI:0.00
PC:3e9fe     Total:14929      MisBP:0   MisRate:0.00%    MPKI:0.00
PC:7cbc8     Total:10      MisBP:0   MisRate:0.00%    MPKI:0.00
PC:3f266     Total:241      MisBP:0   MisRate:0.00%    MPKI:0.00
PC:1617a     Total:20155      MisBP:0   MisRate:0.00%    MPKI:0.00
PC:7c35e     Total:47      MisBP:0   MisRate:0.00%    MPKI:0.00
PC:3ea02     Total:40014      MisBP:0   MisRate:0.00%    MPKI:0.00
PC:16034     Total:3565      MisBP:0   MisRate:0.00%    MPKI:0.00
PC:7ca82     Total:27      MisBP:0   MisRate:0.00%    MPKI:0.00
PC:1ce2e     Total:24      MisBP:0   MisRate:0.00%    MPKI:0.00
PC:316a4     Total:1734      MisBP:0   MisRate:0.00%    MPKI:0.00
PC:48410     Total:470      MisBP:0   MisRate:0.00%    MPKI:0.00
PC:7cbca     Total:17      MisBP:0   MisRate:0.00%    MPKI:0.00
PC:3f6d8     Total:26238      MisBP:0   MisRate:0.00%    MPKI:0.00
PC:16170     Total:19983      MisBP:0   MisRate:0.00%    MPKI:0.00
PC:1616c     Total:20421      MisBP:0   MisRate:0.00%    MPKI:0.00
PC:7c356     Total:47      MisBP:0   MisRate:0.00%    MPKI:0.00
PC:15908     Total:8642      MisBP:0   MisRate:0.00%    MPKI:0.00
PC:3e9f4     Total:14931      MisBP:0   MisRate:0.00%    MPKI:0.00
PC:3f112     Total:10      MisBP:0   MisRate:0.00%    MPKI:0.00
PC:7ca74     Total:70      MisBP:0   MisRate:0.00%    MPKI:0.00
PC:31696     Total:338      MisBP:0   MisRate:0.00%    MPKI:0.00
PC:7cbbe     Total:20      MisBP:0   MisRate:0.00%    MPKI:0.00
PC:165ec     Total:8943      MisBP:0   MisRate:0.00%    MPKI:0.00
PC:7c35a     Total:47      MisBP:0   MisRate:0.00%    MPKI:0.00
PC:3e9f8     Total:14929      MisBP:0   MisRate:0.00%    MPKI:0.00
PC:3f116     Total:7      MisBP:0   MisRate:0.00%    MPKI:0.00
PC:7ca78     Total:70      MisBP:0   MisRate:0.00%    MPKI:0.00
PC:3169a     Total:1580      MisBP:0   MisRate:0.00%    MPKI:0.00
PC:7cbc2     Total:12      MisBP:0   MisRate:0.00%    MPKI:0.00
PC:3f260     Total:364      MisBP:0   MisRate:0.00%    MPKI:0.00
PC:16174     Total:19979      MisBP:0   MisRate:0.00%    MPKI:0.00
PC:7c380     Total:26      MisBP:0   MisRate:0.00%    MPKI:0.00
PC:2cdea     Total:140817      MisBP:0   MisRate:0.00%    MPKI:0.00
PC:18574     Total:1388      MisBP:0   MisRate:0.00%    MPKI:0.00
PC:36bda     Total:477      MisBP:0   MisRate:0.00%    MPKI:0.00
PC:316be     Total:1929      MisBP:0   MisRate:0.00%    MPKI:0.00
PC:33bb4     Total:406      MisBP:0   MisRate:0.00%    MPKI:0.00
PC:4842a     Total:434      MisBP:0   MisRate:0.00%    MPKI:0.00
PC:7cbe4     Total:22      MisBP:0   MisRate:0.00%    MPKI:0.00
PC:3f282     Total:135      MisBP:0   MisRate:0.00%    MPKI:0.00
PC:16196     Total:25407      MisBP:0   MisRate:0.00%    MPKI:0.00
PC:3fdd0     Total:152775      MisBP:0   MisRate:0.00%    MPKI:0.00
PC:15932     Total:65917      MisBP:0   MisRate:0.00%    MPKI:0.00
PC:3ea1e     Total:1483      MisBP:0   MisRate:0.00%    MPKI:0.00
PC:41662     Total:904      MisBP:0   MisRate:0.00%    MPKI:0.00
PC:2cdec     Total:140817      MisBP:0   MisRate:0.00%    MPKI:0.00
PC:18576     Total:1388      MisBP:0   MisRate:0.00%    MPKI:0.00
PC:316c0     Total:1641      MisBP:0   MisRate:0.00%    MPKI:0.00
PC:7c382     Total:30      MisBP:0   MisRate:0.00%    MPKI:0.00
PC:3ea20     Total:1483      MisBP:0   MisRate:0.00%    MPKI:0.00
PC:1f6f0     Total:4315      MisBP:0   MisRate:0.00%    MPKI:0.00
PC:15d88     Total:20175      MisBP:0   MisRate:0.00%    MPKI:0.00
PC:3ee74     Total:6367      MisBP:0   MisRate:0.00%    MPKI:0.00
PC:157bc     Total:69189      MisBP:0   MisRate:0.00%    MPKI:0.00
PC:3e8a8     Total:597      MisBP:0   MisRate:0.00%    MPKI:0.00
PC:34254     Total:2      MisBP:0   MisRate:0.00%    MPKI:0.00
PC:48aca     Total:251      MisBP:0   MisRate:0.00%    MPKI:0.00
PC:3e5ba     Total:1      MisBP:0   MisRate:0.00%    MPKI:0.00
PC:154ce     Total:1590      MisBP:0   MisRate:0.00%    MPKI:0.00
PC:7cbba     Total:20      MisBP:0   MisRate:0.00%    MPKI:0.00
PC:7cbe0     Total:24      MisBP:0   MisRate:0.00%    MPKI:0.00
PC:3f27e     Total:215      MisBP:0   MisRate:0.00%    MPKI:0.00
PC:16192     Total:25648      MisBP:0   MisRate:0.00%    MPKI:0.00
PC:3ea1a     Total:17004      MisBP:0   MisRate:0.00%    MPKI:0.00
PC:3f280     Total:135      MisBP:0   MisRate:0.00%    MPKI:0.00
PC:16194     Total:25648      MisBP:0   MisRate:0.00%    MPKI:0.00
PC:15930     Total:65918      MisBP:0   MisRate:0.00%    MPKI:0.00
PC:16ce4     Total:1953      MisBP:0   MisRate:0.00%    MPKI:0.00
PC:3f244     Total:75      MisBP:0   MisRate:0.00%    MPKI:0.00
PC:3f7c0     Total:478      MisBP:0   MisRate:0.00%    MPKI:0.00
PC:166d4     Total:18890      MisBP:0   MisRate:0.00%    MPKI:0.00
PC:3f7c6     Total:483      MisBP:0   MisRate:0.00%    MPKI:0.00
PC:166da     Total:18640      MisBP:0   MisRate:0.00%    MPKI:0.00
PC:3f7ca     Total:654      MisBP:0   MisRate:0.00%    MPKI:0.00
PC:166de     Total:1      MisBP:0   MisRate:0.00%    MPKI:0.00
PC:3f7d6     Total:341      MisBP:0   MisRate:0.00%    MPKI:0.00
PC:166ea     Total:1068      MisBP:0   MisRate:0.00%    MPKI:0.00
PC:166ee     Total:1068      MisBP:0   MisRate:0.00%    MPKI:0.00
PC:1f728     Total:1606      MisBP:0   MisRate:0.00%    MPKI:0.00
PC:7cba6     Total:16      MisBP:0   MisRate:0.00%    MPKI:0.00
PC:16158     Total:24676      MisBP:0   MisRate:0.00%    MPKI:0.00
PC:158f4     Total:9330      MisBP:0   MisRate:0.00%    MPKI:0.00
PC:3e9e0     Total:4154      MisBP:0   MisRate:0.00%    MPKI:0.00
PC:483ee     Total:477      MisBP:0   MisRate:0.00%    MPKI:0.00
PC:1615a     Total:24674      MisBP:0   MisRate:0.00%    MPKI:0.00
PC:7c344     Total:47      MisBP:0   MisRate:0.00%    MPKI:0.00
PC:3e9e2     Total:4152      MisBP:0   MisRate:0.00%    MPKI:0.00
PC:1613c     Total:23764      MisBP:0   MisRate:0.00%    MPKI:0.00
PC:3f222     Total:339      MisBP:0   MisRate:0.00%    MPKI:0.00
PC:16136     Total:34181      MisBP:0   MisRate:0.00%    MPKI:0.00
PC:158d2     Total:17731      MisBP:0   MisRate:0.00%    MPKI:0.00
PC:3e9be     Total:3648      MisBP:0   MisRate:0.00%    MPKI:0.00
PC:31660     Total:572      MisBP:0   MisRate:0.00%    MPKI:0.00
PC:483cc     Total:208      MisBP:0   MisRate:0.00%    MPKI:0.00
PC:3e9c0     Total:3561      MisBP:0   MisRate:0.00%    MPKI:0.00
PC:3f228     Total:339      MisBP:0   MisRate:0.00%    MPKI:0.00
PC:1ce0e     Total:362      MisBP:0   MisRate:0.00%    MPKI:0.00
PC:166a2     Total:11121      MisBP:0   MisRate:0.00%    MPKI:0.00
PC:166aa     Total:11774      MisBP:0   MisRate:0.00%    MPKI:0.00
PC:166b0     Total:11771      MisBP:0   MisRate:0.00%    MPKI:0.00
PC:166b6     Total:20031      MisBP:0   MisRate:0.00%    MPKI:0.00
PC:1f718     Total:2244      MisBP:0   MisRate:0.00%    MPKI:0.00
PC:154fe     Total:167301      MisBP:0   MisRate:0.00%    MPKI:0.00
PC:990b8     Total:208      MisBP:0   MisRate:0.00%    MPKI:0.00
PC:166c8     Total:18892      MisBP:0   MisRate:0.00%    MPKI:0.00
PC:16168     Total:20432      MisBP:0   MisRate:0.00%    MPKI:0.00
PC:3168c     Total:343      MisBP:0   MisRate:0.00%    MPKI:0.00
PC:7cbb2     Total:16      MisBP:0   MisRate:0.00%    MPKI:0.00
PC:16164     Total:20436      MisBP:0   MisRate:0.00%    MPKI:0.00
PC:7c34e     Total:47      MisBP:0   MisRate:0.00%    MPKI:0.00
PC:15900     Total:8642      MisBP:0   MisRate:0.00%    MPKI:0.00
PC:3f10a     Total:9      MisBP:0   MisRate:0.00%    MPKI:0.00
PC:7ca6c     Total:490      MisBP:0   MisRate:0.00%    MPKI:0.00
PC:3168e     Total:343      MisBP:0   MisRate:0.00%    MPKI:0.00
PC:3f254     Total:91      MisBP:0   MisRate:0.00%    MPKI:0.00
PC:1ce16     Total:339      MisBP:0   MisRate:0.00%    MPKI:0.00
PC:7c352     Total:47      MisBP:0   MisRate:0.00%    MPKI:0.00
PC:15904     Total:8642      MisBP:0   MisRate:0.00%    MPKI:0.00
PC:3e9f0     Total:12414      MisBP:0   MisRate:0.00%    MPKI:0.00
PC:16022     Total:3571      MisBP:0   MisRate:0.00%    MPKI:0.00
PC:7ca70     Total:70      MisBP:0   MisRate:0.00%    MPKI:0.00
PC:1ce1c     Total:111      MisBP:0   MisRate:0.00%    MPKI:0.00
PC:31692     Total:343      MisBP:0   MisRate:0.00%    MPKI:0.00
PC:3f258     Total:91      MisBP:0   MisRate:0.00%    MPKI:0.00
PC:7c348     Total:47      MisBP:0   MisRate:0.00%    MPKI:0.00
PC:31684     Total:501      MisBP:0   MisRate:0.00%    MPKI:0.00
PC:3f248     Total:75      MisBP:0   MisRate:0.00%    MPKI:0.00
PC:7cbaa     Total:16      MisBP:0   MisRate:0.00%    MPKI:0.00
PC:1615c     Total:24666      MisBP:0   MisRate:0.00%    MPKI:0.00
PC:3e9e4     Total:12831      MisBP:0   MisRate:0.00%    MPKI:0.00
PC:1ce10     Total:362      MisBP:0   MisRate:0.00%    MPKI:0.00
PC:3f24a     Total:75      MisBP:0   MisRate:0.00%    MPKI:0.00
PC:7cbac     Total:16      MisBP:0   MisRate:0.00%    MPKI:0.00
PC:2e672     Total:216      MisBP:0   MisRate:0.00%    MPKI:0.00
PC:158fa     Total:9226      MisBP:0   MisRate:0.00%    MPKI:0.00
PC:3e9e6     Total:12831      MisBP:0   MisRate:0.00%    MPKI:0.00
PC:3f24e     Total:75      MisBP:0   MisRate:0.00%    MPKI:0.00
PC:7cbb0     Total:16      MisBP:0   MisRate:0.00%    MPKI:0.00
PC:16162     Total:20439      MisBP:0   MisRate:0.00%    MPKI:0.00
PC:7c34c     Total:47      MisBP:0   MisRate:0.00%    MPKI:0.00
PC:158fe     Total:9226      MisBP:0   MisRate:0.00%    MPKI:0.00
PC:3e9ea     Total:12831      MisBP:0   MisRate:0.00%    MPKI:0.00
PC:7d028     Total:128      MisBP:0   MisRate:0.00%    MPKI:0.00
PC:3ff10     Total:108      MisBP:0   MisRate:0.00%    MPKI:0.00
PC:16e24     Total:4188      MisBP:0   MisRate:0.00%    MPKI:0.00
PC:7d00e     Total:62      MisBP:0   MisRate:0.00%    MPKI:0.00
PC:165c0     Total:14640      MisBP:0   MisRate:0.00%    MPKI:0.00
PC:3f6ac     Total:14146      MisBP:0   MisRate:0.00%    MPKI:0.00
PC:920ec     Total:374      MisBP:0   MisRate:0.00%    MPKI:0.00
PC:3ff14     Total:108      MisBP:0   MisRate:0.00%    MPKI:0.00
PC:16e28     Total:4188      MisBP:0   MisRate:0.00%    MPKI:0.00
PC:3f6b4     Total:14183      MisBP:0   MisRate:0.00%    MPKI:0.00
PC:920e8     Total:1228      MisBP:0   MisRate:0.00%    MPKI:0.00
PC:165da     Total:18113      MisBP:0   MisRate:0.00%    MPKI:0.00
PC:3f6c6     Total:13357      MisBP:0   MisRate:0.00%    MPKI:0.00
PC:9e538     Total:34043      MisBP:0   MisRate:0.00%    MPKI:0.00
PC:16e42     Total:1698      MisBP:0   MisRate:0.00%    MPKI:0.00
PC:3f6ca     Total:13357      MisBP:0   MisRate:0.00%    MPKI:0.00
PC:3f6cc     Total:13357      MisBP:0   MisRate:0.00%    MPKI:0.00
PC:16e46     Total:1698      MisBP:0   MisRate:0.00%    MPKI:0.00
PC:165e2     Total:12793      MisBP:0   MisRate:0.00%    MPKI:0.00
PC:3f69e     Total:2317      MisBP:0   MisRate:0.00%    MPKI:0.00
PC:36a46     Total:460      MisBP:0   MisRate:0.00%    MPKI:0.00
PC:920d8     Total:6380      MisBP:0   MisRate:0.00%    MPKI:0.00
PC:3ff00     Total:108      MisBP:0   MisRate:0.00%    MPKI:0.00
PC:16e14     Total:4189      MisBP:0   MisRate:0.00%    MPKI:0.00
PC:7cffe     Total:481      MisBP:0   MisRate:0.00%    MPKI:0.00
PC:920da     Total:3153      MisBP:0   MisRate:0.00%    MPKI:0.00
PC:16e16     Total:4189      MisBP:0   MisRate:0.00%    MPKI:0.00
PC:165b2     Total:16175      MisBP:0   MisRate:0.00%    MPKI:0.00
PC:3f6ce     Total:24402      MisBP:0   MisRate:0.00%    MPKI:0.00
PC:9e514     Total:38286      MisBP:0   MisRate:0.00%    MPKI:0.00
PC:16e1e     Total:4189      MisBP:0   MisRate:0.00%    MPKI:0.00
PC:7d008     Total:1628      MisBP:0   MisRate:0.00%    MPKI:0.00
PC:165ba     Total:15701      MisBP:0   MisRate:0.00%    MPKI:0.00
PC:3f6a6     Total:16682      MisBP:0   MisRate:0.00%    MPKI:0.00
PC:9e518     Total:76520      MisBP:0   MisRate:0.00%    MPKI:0.00
PC:920e6     Total:1230      MisBP:0   MisRate:0.00%    MPKI:0.00
PC:16e22     Total:4189      MisBP:0   MisRate:0.00%    MPKI:0.00
PC:332ce     Total:56      MisBP:0   MisRate:0.00%    MPKI:0.00
PC:158ac     Total:17755      MisBP:0   MisRate:0.00%    MPKI:0.00
PC:48bba     Total:12      MisBP:0   MisRate:0.00%    MPKI:0.00
PC:1face     Total:1265      MisBP:0   MisRate:0.00%    MPKI:0.00
PC:42afe     Total:140      MisBP:0   MisRate:0.00%    MPKI:0.00
PC:3f08e     Total:67      MisBP:0   MisRate:0.00%    MPKI:0.00
PC:15fa2     Total:5361      MisBP:0   MisRate:0.00%    MPKI:0.00
PC:1573e     Total:101606      MisBP:0   MisRate:0.00%    MPKI:0.00
PC:3e82a     Total:26573      MisBP:0   MisRate:0.00%    MPKI:0.00
PC:99d1c     Total:164      MisBP:0   MisRate:0.00%    MPKI:0.00
PC:3e998     Total:6807      MisBP:0   MisRate:0.00%    MPKI:0.00
PC:3e99c     Total:6807      MisBP:0   MisRate:0.00%    MPKI:0.00
PC:158b0     Total:17745      MisBP:0   MisRate:0.00%    MPKI:0.00
PC:42b02     Total:150      MisBP:0   MisRate:0.00%    MPKI:0.00
PC:15fa6     Total:5360      MisBP:0   MisRate:0.00%    MPKI:0.00
PC:158b2     Total:145756      MisBP:0   MisRate:0.00%    MPKI:0.00
PC:48bc0     Total:2      MisBP:0   MisRate:0.00%    MPKI:0.00
PC:1fad4     Total:1265      MisBP:0   MisRate:0.00%    MPKI:0.00
PC:158b6     Total:72876      MisBP:0   MisRate:0.00%    MPKI:0.00
PC:16e62     Total:1677      MisBP:0   MisRate:0.00%    MPKI:0.00
PC:16e4a     Total:1698      MisBP:0   MisRate:0.00%    MPKI:0.00
PC:3ff42     Total:9050      MisBP:0   MisRate:0.00%    MPKI:0.00
PC:16e56     Total:1698      MisBP:0   MisRate:0.00%    MPKI:0.00
PC:3f6de     Total:26238      MisBP:0   MisRate:0.00%    MPKI:0.00
PC:3f680538     Total:1      MisBP:0   MisRate:0.00%    MPKI:0.00
PC:92120     Total:33549      MisBP:0   MisRate:0.00%    MPKI:0.00
PC:16e5c     Total:1677      MisBP:0   MisRate:0.00%    MPKI:0.00
PC:92126     Total:8386      MisBP:0   MisRate:0.00%    MPKI:0.00
PC:3ee28     Total:366      MisBP:0   MisRate:0.00%    MPKI:0.00
PC:9212e     Total:5749      MisBP:0   MisRate:0.00%    MPKI:0.00
PC:3ff56     Total:11708      MisBP:0   MisRate:0.00%    MPKI:0.00
PC:16e6a     Total:1677      MisBP:0   MisRate:0.00%    MPKI:0.00
PC:3f6f2     Total:7184      MisBP:0   MisRate:0.00%    MPKI:0.00
PC:3ff5a     Total:11708      MisBP:0   MisRate:0.00%    MPKI:0.00
PC:16e6e     Total:1677      MisBP:0   MisRate:0.00%    MPKI:0.00
PC:3f6f6     Total:7183      MisBP:0   MisRate:0.00%    MPKI:0.00
PC:16e7c     Total:1667      MisBP:0   MisRate:0.00%    MPKI:0.00
PC:16ca0     Total:2030      MisBP:0   MisRate:0.00%    MPKI:0.00
PC:1b99a     Total:62919      MisBP:0   MisRate:0.00%    MPKI:0.00
PC:2fde4     Total:1146      MisBP:0   MisRate:0.00%    MPKI:0.00
PC:3fd86     Total:38      MisBP:0   MisRate:0.00%    MPKI:0.00
PC:16c9a     Total:2030      MisBP:0   MisRate:0.00%    MPKI:0.00
PC:2fde6     Total:1074      MisBP:0   MisRate:0.00%    MPKI:0.00
PC:30218     Total:165      MisBP:0   MisRate:0.00%    MPKI:0.00
PC:1b9a2     Total:3213      MisBP:0   MisRate:0.00%    MPKI:0.00
PC:2fdea     Total:1069      MisBP:0   MisRate:0.00%    MPKI:0.00
PC:1b9a6     Total:3211      MisBP:0   MisRate:0.00%    MPKI:0.00
PC:1b996     Total:62919      MisBP:0   MisRate:0.00%    MPKI:0.00
PC:1643c     Total:22209      MisBP:0   MisRate:0.00%    MPKI:0.00
PC:3f528     Total:301      MisBP:0   MisRate:0.00%    MPKI:0.00
PC:2fdee     Total:1069      MisBP:0   MisRate:0.00%    MPKI:0.00
PC:1b9aa     Total:3149      MisBP:0   MisRate:0.00%    MPKI:0.00
PC:2fdf2     Total:1062      MisBP:0   MisRate:0.00%    MPKI:0.00
PC:30224     Total:165      MisBP:0   MisRate:0.00%    MPKI:0.00
PC:1b9ae     Total:3149      MisBP:0   MisRate:0.00%    MPKI:0.00
PC:3fd94     Total:38      MisBP:0   MisRate:0.00%    MPKI:0.00
PC:2fdd4     Total:943      MisBP:0   MisRate:0.00%    MPKI:0.00
PC:1b984     Total:891      MisBP:0   MisRate:0.00%    MPKI:0.00
PC:2fdcc     Total:287      MisBP:0   MisRate:0.00%    MPKI:0.00
PC:1b988     Total:891      MisBP:0   MisRate:0.00%    MPKI:0.00
PC:2fdd0     Total:287      MisBP:0   MisRate:0.00%    MPKI:0.00
PC:30202     Total:203      MisBP:0   MisRate:0.00%    MPKI:0.00
PC:1b98c     Total:891      MisBP:0   MisRate:0.00%    MPKI:0.00
PC:3fd72     Total:456      MisBP:0   MisRate:0.00%    MPKI:0.00
PC:16c86     Total:2076      MisBP:0   MisRate:0.00%    MPKI:0.00
PC:16ca8     Total:2030      MisBP:0   MisRate:0.00%    MPKI:0.00
PC:30206     Total:203      MisBP:0   MisRate:0.00%    MPKI:0.00
PC:1b990     Total:605      MisBP:0   MisRate:0.00%    MPKI:0.00
PC:3fd76     Total:204      MisBP:0   MisRate:0.00%    MPKI:0.00
PC:16c8a     Total:2076      MisBP:0   MisRate:0.00%    MPKI:0.00
PC:3fd7a     Total:204      MisBP:0   MisRate:0.00%    MPKI:0.00
PC:16c8e     Total:2076      MisBP:0   MisRate:0.00%    MPKI:0.00
PC:1642a     Total:19183      MisBP:0   MisRate:0.00%    MPKI:0.00
PC:2fdda     Total:931      MisBP:0   MisRate:0.00%    MPKI:0.00
PC:3ee1c     Total:366      MisBP:0   MisRate:0.00%    MPKI:0.00
PC:3ee16     Total:366      MisBP:0   MisRate:0.00%    MPKI:0.00
PC:319f2     Total:6198      MisBP:0   MisRate:0.00%    MPKI:0.00
PC:16382     Total:23292      MisBP:0   MisRate:0.00%    MPKI:0.00
PC:7cdd0     Total:399      MisBP:0   MisRate:0.00%    MPKI:0.00
PC:36a34     Total:1488      MisBP:0   MisRate:0.00%    MPKI:0.00
PC:7cfe0     Total:16      MisBP:0   MisRate:0.00%    MPKI:0.00
PC:3f67e     Total:236      MisBP:0   MisRate:0.00%    MPKI:0.00
PC:16592     Total:16458      MisBP:0   MisRate:0.00%    MPKI:0.00
PC:15d30     Total:3971      MisBP:0   MisRate:0.00%    MPKI:0.00
PC:15d2a     Total:3974      MisBP:0   MisRate:0.00%    MPKI:0.00
PC:7cfe6     Total:513      MisBP:0   MisRate:0.00%    MPKI:0.00
PC:3f684     Total:236      MisBP:0   MisRate:0.00%    MPKI:0.00
PC:16598     Total:13703      MisBP:0   MisRate:0.00%    MPKI:0.00
PC:15d34     Total:29987      MisBP:0   MisRate:0.00%    MPKI:0.00
PC:3ee20     Total:366      MisBP:0   MisRate:0.00%    MPKI:0.00
PC:7cfee     Total:513      MisBP:0   MisRate:0.00%    MPKI:0.00
PC:165a0     Total:15581      MisBP:0   MisRate:0.00%    MPKI:0.00
PC:15d3c     Total:29985      MisBP:0   MisRate:0.00%    MPKI:0.00
PC:7cfd2     Total:4      MisBP:0   MisRate:0.00%    MPKI:0.00
PC:16444     Total:21390      MisBP:0   MisRate:0.00%    MPKI:0.00
PC:3f530     Total:301      MisBP:0   MisRate:0.00%    MPKI:0.00
PC:15d1a     Total:27715      MisBP:0   MisRate:0.00%    MPKI:0.00
PC:3ee06     Total:369      MisBP:0   MisRate:0.00%    MPKI:0.00
PC:7cfd0     Total:4      MisBP:0   MisRate:0.00%    MPKI:0.00
PC:3f66e     Total:278      MisBP:0   MisRate:0.00%    MPKI:0.00
PC:16582     Total:16461      MisBP:0   MisRate:0.00%    MPKI:0.00
PC:3ee0a     Total:369      MisBP:0   MisRate:0.00%    MPKI:0.00
PC:48bc4     Total:2      MisBP:0   MisRate:0.00%    MPKI:0.00
PC:16584     Total:16461      MisBP:0   MisRate:0.00%    MPKI:0.00
PC:16588     Total:16461      MisBP:0   MisRate:0.00%    MPKI:0.00
PC:3ee10     Total:369      MisBP:0   MisRate:0.00%    MPKI:0.00
PC:7cfda     Total:4      MisBP:0   MisRate:0.00%    MPKI:0.00
PC:1658c     Total:16461      MisBP:0   MisRate:0.00%    MPKI:0.00
PC:7cfdc     Total:4      MisBP:0   MisRate:0.00%    MPKI:0.00
PC:3f67a     Total:275      MisBP:0   MisRate:0.00%    MPKI:0.00
PC:1658e     Total:16458      MisBP:0   MisRate:0.00%    MPKI:0.00
PC:1a444     Total:733      MisBP:0   MisRate:0.00%    MPKI:0.00
PC:3dbd8     Total:11128      MisBP:0   MisRate:0.00%    MPKI:0.00
PC:2f41e     Total:1295      MisBP:0   MisRate:0.00%    MPKI:0.00
PC:1aba8     Total:105424      MisBP:0   MisRate:0.00%    MPKI:0.00
PC:1a870     Total:14018      MisBP:0   MisRate:0.00%    MPKI:0.00
PC:33588     Total:410      MisBP:0   MisRate:0.00%    MPKI:0.00
PC:47dfe     Total:73      MisBP:0   MisRate:0.00%    MPKI:0.00
PC:3dbdc     Total:11124      MisBP:0   MisRate:0.00%    MPKI:0.00
PC:15b6a     Total:21700      MisBP:0   MisRate:0.00%    MPKI:0.00
PC:1abac     Total:631543      MisBP:0   MisRate:0.00%    MPKI:0.00
PC:47dfa     Total:73      MisBP:0   MisRate:0.00%    MPKI:0.00
PC:2ecba     Total:1423      MisBP:0   MisRate:0.00%    MPKI:0.00
PC:15b70     Total:21495      MisBP:0   MisRate:0.00%    MPKI:0.00
PC:2f428     Total:710      MisBP:0   MisRate:0.00%    MPKI:0.00
PC:1abb2     Total:102749      MisBP:0   MisRate:0.00%    MPKI:0.00
PC:2ecc0     Total:263      MisBP:0   MisRate:0.00%    MPKI:0.00
PC:1a87c     Total:3256      MisBP:0   MisRate:0.00%    MPKI:0.00
PC:2f42e     Total:603      MisBP:0   MisRate:0.00%    MPKI:0.00
PC:1abb8     Total:102699      MisBP:0   MisRate:0.00%    MPKI:0.00
PC:1c8b6     Total:1691      MisBP:0   MisRate:0.00%    MPKI:0.00
PC:3eece     Total:71      MisBP:0   MisRate:0.00%    MPKI:0.00
PC:7c830     Total:21      MisBP:0   MisRate:0.00%    MPKI:0.00
PC:3eed6     Total:70      MisBP:0   MisRate:0.00%    MPKI:0.00
PC:15dea     Total:21619      MisBP:0   MisRate:0.00%    MPKI:0.00
PC:3fb6c     Total:1431      MisBP:0   MisRate:0.00%    MPKI:0.00
PC:30cee     Total:128      MisBP:0   MisRate:0.00%    MPKI:0.00
PC:41cd4     Total:7272      MisBP:0   MisRate:0.00%    MPKI:0.00
PC:1c8b2     Total:1702      MisBP:0   MisRate:0.00%    MPKI:0.00
PC:1a8ba     Total:1092      MisBP:0   MisRate:0.00%    MPKI:0.00
PC:300fa     Total:5      MisBP:0   MisRate:0.00%    MPKI:0.00
PC:1b884     Total:11661      MisBP:0   MisRate:0.00%    MPKI:0.00
PC:1b452     Total:246      MisBP:0   MisRate:0.00%    MPKI:0.00
PC:2fcc8     Total:296      MisBP:0   MisRate:0.00%    MPKI:0.00
PC:84dee     Total:145231      MisBP:0   MisRate:0.00%    MPKI:0.00
PC:34110     Total:4      MisBP:0   MisRate:0.00%    MPKI:0.00
PC:1f89a     Total:743      MisBP:0   MisRate:0.00%    MPKI:0.00
PC:33584     Total:410      MisBP:0   MisRate:0.00%    MPKI:0.00
PC:7a7f2     Total:11      MisBP:0   MisRate:0.00%    MPKI:0.00
PC:3d2b0     Total:1681      MisBP:0   MisRate:0.00%    MPKI:0.00
PC:19cb4     Total:41      MisBP:0   MisRate:0.00%    MPKI:0.00
PC:2e52a     Total:11992      MisBP:0   MisRate:0.00%    MPKI:0.00
PC:7a7e4     Total:9      MisBP:0   MisRate:0.00%    MPKI:0.00
PC:516f8     Total:7364      MisBP:0   MisRate:0.00%    MPKI:0.00
PC:47ef6     Total:588      MisBP:0   MisRate:0.00%    MPKI:0.00
PC:99006     Total:50      MisBP:0   MisRate:0.00%    MPKI:0.00
PC:1f66e     Total:243      MisBP:0   MisRate:0.00%    MPKI:0.00
PC:2e538     Total:11908      MisBP:0   MisRate:0.00%    MPKI:0.00
PC:28a3a     Total:74615      MisBP:0   MisRate:0.00%    MPKI:0.00
PC:2861a     Total:1      MisBP:0   MisRate:0.00%    MPKI:0.00
PC:3ce90     Total:21200      MisBP:0   MisRate:0.00%    MPKI:0.00
PC:51706     Total:9097      MisBP:0   MisRate:0.00%    MPKI:0.00
PC:28a4c     Total:6764      MisBP:0   MisRate:0.00%    MPKI:0.00
PC:3d2c2     Total:2202      MisBP:0   MisRate:0.00%    MPKI:0.00
PC:3368e     Total:315      MisBP:0   MisRate:0.00%    MPKI:0.00
PC:47f04     Total:576      MisBP:0   MisRate:0.00%    MPKI:0.00
PC:325c6     Total:149      MisBP:0   MisRate:0.00%    MPKI:0.00
PC:47e62     Total:2730      MisBP:0   MisRate:0.00%    MPKI:0.00
PC:335d2     Total:289      MisBP:0   MisRate:0.00%    MPKI:0.00
PC:47e48     Total:73      MisBP:0   MisRate:0.00%    MPKI:0.00
PC:3dc26     Total:5252      MisBP:0   MisRate:0.00%    MPKI:0.00
PC:15bb4     Total:23029      MisBP:0   MisRate:0.00%    MPKI:0.00
PC:1abf6     Total:98855      MisBP:0   MisRate:0.00%    MPKI:0.00
PC:2ed18     Total:590      MisBP:0   MisRate:0.00%    MPKI:0.00
PC:1a8d4     Total:929      MisBP:0   MisRate:0.00%    MPKI:0.00
PC:335ec     Total:357      MisBP:0   MisRate:0.00%    MPKI:0.00
PC:7c82a     Total:20      MisBP:0   MisRate:0.00%    MPKI:0.00
PC:7b5a2     Total:4      MisBP:0   MisRate:0.00%    MPKI:0.00
PC:3dc40     Total:4806      MisBP:0   MisRate:0.00%    MPKI:0.00
PC:15bce     Total:23473      MisBP:0   MisRate:0.00%    MPKI:0.00
PC:2f486     Total:177      MisBP:0   MisRate:0.00%    MPKI:0.00
PC:1ac10     Total:95752      MisBP:0   MisRate:0.00%    MPKI:0.00
PC:19cb0     Total:19      MisBP:0   MisRate:0.00%    MPKI:0.00
PC:3ce7e     Total:10119      MisBP:0   MisRate:0.00%    MPKI:0.00
PC:516f4     Total:77640      MisBP:0   MisRate:0.00%    MPKI:0.00
PC:19a32     Total:17050      MisBP:0   MisRate:0.00%    MPKI:0.00
PC:2ea12     Total:82      MisBP:0   MisRate:0.00%    MPKI:0.00
PC:3e9b4     Total:1      MisBP:0   MisRate:0.00%    MPKI:0.00
PC:158c8     Total:70834      MisBP:0   MisRate:0.00%    MPKI:0.00
PC:19a2e     Total:17050      MisBP:0   MisRate:0.00%    MPKI:0.00
PC:42b1a     Total:690      MisBP:0   MisRate:0.00%    MPKI:0.00
PC:2e6d6     Total:86      MisBP:0   MisRate:0.00%    MPKI:0.00
PC:2ea16     Total:78      MisBP:0   MisRate:0.00%    MPKI:0.00
PC:3e9b8     Total:36554      MisBP:0   MisRate:0.00%    MPKI:0.00
PC:158cc     Total:17731      MisBP:0   MisRate:0.00%    MPKI:0.00
PC:2e6d0     Total:86      MisBP:0   MisRate:0.00%    MPKI:0.00
PC:42b1e     Total:668      MisBP:0   MisRate:0.00%    MPKI:0.00
PC:19e64     Total:204      MisBP:0   MisRate:0.00%    MPKI:0.00
PC:2e6da     Total:85      MisBP:0   MisRate:0.00%    MPKI:0.00
PC:2ea26     Total:67      MisBP:0   MisRate:0.00%    MPKI:0.00
PC:19e74     Total:186      MisBP:0   MisRate:0.00%    MPKI:0.00
PC:2e6ea     Total:85      MisBP:0   MisRate:0.00%    MPKI:0.00
PC:3ee82     Total:70      MisBP:0   MisRate:0.00%    MPKI:0.00
PC:15d96     Total:3016      MisBP:0   MisRate:0.00%    MPKI:0.00
PC:3e9a4     Total:6807      MisBP:0   MisRate:0.00%    MPKI:0.00
PC:1fad8     Total:1265      MisBP:0   MisRate:0.00%    MPKI:0.00
PC:19a1c     Total:17827      MisBP:0   MisRate:0.00%    MPKI:0.00
PC:42b08     Total:1588      MisBP:0   MisRate:0.00%    MPKI:0.00
PC:19e4e     Total:178      MisBP:0   MisRate:0.00%    MPKI:0.00
PC:2e6c4     Total:86      MisBP:0   MisRate:0.00%    MPKI:0.00
PC:99d24     Total:91      MisBP:0   MisRate:0.00%    MPKI:0.00
PC:332d6     Total:56      MisBP:0   MisRate:0.00%    MPKI:0.00
PC:47b4c     Total:34936      MisBP:0   MisRate:0.00%    MPKI:0.00
PC:7c7e4     Total:39      MisBP:0   MisRate:0.00%    MPKI:0.00
PC:158b8     Total:72843      MisBP:0   MisRate:0.00%    MPKI:0.00
PC:2e294     Total:1399      MisBP:0   MisRate:0.00%    MPKI:0.00
PC:42b0a     Total:1588      MisBP:0   MisRate:0.00%    MPKI:0.00
PC:2e6c6     Total:86      MisBP:0   MisRate:0.00%    MPKI:0.00
PC:2ea0c     Total:82      MisBP:0   MisRate:0.00%    MPKI:0.00
PC:2e29e     Total:3990      MisBP:0   MisRate:0.00%    MPKI:0.00
PC:42b14     Total:690      MisBP:0   MisRate:0.00%    MPKI:0.00
PC:19e5a     Total:190      MisBP:0   MisRate:0.00%    MPKI:0.00
PC:7c812     Total:21      MisBP:0   MisRate:0.00%    MPKI:0.00
PC:31428     Total:13971      MisBP:0   MisRate:0.00%    MPKI:0.00
PC:3142c     Total:13971      MisBP:0   MisRate:0.00%    MPKI:0.00
PC:3eea8     Total:50      MisBP:0   MisRate:0.00%    MPKI:0.00
PC:7c80a     Total:21      MisBP:0   MisRate:0.00%    MPKI:0.00
PC:31430     Total:13971      MisBP:0   MisRate:0.00%    MPKI:0.00
PC:3eeac     Total:49      MisBP:0   MisRate:0.00%    MPKI:0.00
PC:15dc0     Total:4238      MisBP:0   MisRate:0.00%    MPKI:0.00
PC:7c80e     Total:21      MisBP:0   MisRate:0.00%    MPKI:0.00
PC:15dc4     Total:5185      MisBP:0   MisRate:0.00%    MPKI:0.00
PC:7c802     Total:23      MisBP:0   MisRate:0.00%    MPKI:0.00
PC:4857c     Total:85      MisBP:0   MisRate:0.00%    MPKI:0.00
PC:3e35a     Total:320      MisBP:0   MisRate:0.00%    MPKI:0.00
PC:31438     Total:445      MisBP:0   MisRate:0.00%    MPKI:0.00
PC:15dc8     Total:22454      MisBP:0   MisRate:0.00%    MPKI:0.00
PC:7c816     Total:21      MisBP:0   MisRate:0.00%    MPKI:0.00
PC:15dd4     Total:22454      MisBP:0   MisRate:0.00%    MPKI:0.00
PC:7c822     Total:38      MisBP:0   MisRate:0.00%    MPKI:0.00
PC:3eec8     Total:40      MisBP:0   MisRate:0.00%    MPKI:0.00
PC:31418     Total:14110      MisBP:0   MisRate:0.00%    MPKI:0.00
PC:3ee86     Total:86      MisBP:0   MisRate:0.00%    MPKI:0.00
PC:15d9a     Total:19706      MisBP:0   MisRate:0.00%    MPKI:0.00
PC:7c7e8     Total:195      MisBP:0   MisRate:0.00%    MPKI:0.00
PC:7c7ea     Total:39      MisBP:0   MisRate:0.00%    MPKI:0.00
PC:3ee8c     Total:86      MisBP:0   MisRate:0.00%    MPKI:0.00
PC:7c7ee     Total:39      MisBP:0   MisRate:0.00%    MPKI:0.00
PC:3ee90     Total:86      MisBP:0   MisRate:0.00%    MPKI:0.00
PC:7c7f2     Total:33      MisBP:0   MisRate:0.00%    MPKI:0.00
PC:301fa     Total:336      MisBP:0   MisRate:0.00%    MPKI:0.00
PC:7c7f6     Total:33      MisBP:0   MisRate:0.00%    MPKI:0.00
PC:3ee96     Total:86      MisBP:0   MisRate:0.00%    MPKI:0.00
PC:15daa     Total:19678      MisBP:0   MisRate:0.00%    MPKI:0.00
PC:7c7f8     Total:33      MisBP:0   MisRate:0.00%    MPKI:0.00
PC:3ee9a     Total:85      MisBP:0   MisRate:0.00%    MPKI:0.00
PC:7c7fc     Total:33      MisBP:0   MisRate:0.00%    MPKI:0.00
PC:31424     Total:13971      MisBP:0   MisRate:0.00%    MPKI:0.00
PC:15db4     Total:19678      MisBP:0   MisRate:0.00%    MPKI:0.00
PC:93174     Total:19      MisBP:0   MisRate:0.00%    MPKI:0.00
PC:2eec2     Total:21      MisBP:0   MisRate:0.00%    MPKI:0.00
PC:40720     Total:571      MisBP:0   MisRate:0.00%    MPKI:0.00
PC:17e9e     Total:31755      MisBP:0   MisRate:0.00%    MPKI:0.00
PC:9ba58     Total:85      MisBP:0   MisRate:0.00%    MPKI:0.00
PC:40726     Total:571      MisBP:0   MisRate:0.00%    MPKI:0.00
PC:2e764     Total:432      MisBP:0   MisRate:0.00%    MPKI:0.00
PC:2eed2     Total:4      MisBP:0   MisRate:0.00%    MPKI:0.00
PC:1a65c     Total:274      MisBP:0   MisRate:0.00%    MPKI:0.00
PC:9ba66     Total:85      MisBP:0   MisRate:0.00%    MPKI:0.00
PC:1f82c     Total:5998      MisBP:0   MisRate:0.00%    MPKI:0.00
PC:40f9c     Total:5126      MisBP:0   MisRate:0.00%    MPKI:0.00
PC:17eb0     Total:27689      MisBP:0   MisRate:0.00%    MPKI:0.00
PC:9ba6a     Total:85      MisBP:0   MisRate:0.00%    MPKI:0.00
PC:40738     Total:133      MisBP:0   MisRate:0.00%    MPKI:0.00
PC:17eb4     Total:27535      MisBP:0   MisRate:0.00%    MPKI:0.00
PC:9ba6e     Total:85      MisBP:0   MisRate:0.00%    MPKI:0.00
PC:40fa8     Total:4293      MisBP:0   MisRate:0.00%    MPKI:0.00
PC:9ba76     Total:85      MisBP:0   MisRate:0.00%    MPKI:0.00
PC:15600     Total:58475      MisBP:0   MisRate:0.00%    MPKI:0.00
PC:93144     Total:2156      MisBP:0   MisRate:0.00%    MPKI:0.00
PC:17e80     Total:31873      MisBP:0   MisRate:0.00%    MPKI:0.00
PC:9ba3a     Total:241      MisBP:0   MisRate:0.00%    MPKI:0.00
PC:40708     Total:709      MisBP:0   MisRate:0.00%    MPKI:0.00
PC:40f70     Total:9422      MisBP:0   MisRate:0.00%    MPKI:0.00
PC:17e84     Total:31873      MisBP:0   MisRate:0.00%    MPKI:0.00
PC:9ba3e     Total:234      MisBP:0   MisRate:0.00%    MPKI:0.00
PC:4070c     Total:709      MisBP:0   MisRate:0.00%    MPKI:0.00
PC:3eebe     Total:9      MisBP:0   MisRate:0.00%    MPKI:0.00
PC:34098     Total:1      MisBP:0   MisRate:0.00%    MPKI:0.00
PC:1f822     Total:1293      MisBP:0   MisRate:0.00%    MPKI:0.00
PC:17e8e     Total:31873      MisBP:0   MisRate:0.00%    MPKI:0.00
PC:9ba48     Total:214      MisBP:0   MisRate:0.00%    MPKI:0.00
PC:40716     Total:683      MisBP:0   MisRate:0.00%    MPKI:0.00
PC:7c058     Total:12      MisBP:0   MisRate:0.00%    MPKI:0.00
PC:3e6f6     Total:1      MisBP:0   MisRate:0.00%    MPKI:0.00
PC:1560a     Total:58469      MisBP:0   MisRate:0.00%    MPKI:0.00
PC:3f75e     Total:16440      MisBP:0   MisRate:0.00%    MPKI:0.00
PC:3f754     Total:16653      MisBP:0   MisRate:0.00%    MPKI:0.00
PC:16ed0     Total:9251      MisBP:0   MisRate:0.00%    MPKI:0.00
PC:beffe3d4     Total:1      MisBP:0   MisRate:0.00%    MPKI:0.00
PC:1666c     Total:7349      MisBP:0   MisRate:0.00%    MPKI:0.00
PC:3f758     Total:16446      MisBP:0   MisRate:0.00%    MPKI:0.00
PC:beffe3d8     Total:1      MisBP:0   MisRate:0.00%    MPKI:0.00
PC:16670     Total:7348      MisBP:0   MisRate:0.00%    MPKI:0.00
PC:3f75c     Total:16442      MisBP:0   MisRate:0.00%    MPKI:0.00
PC:16672     Total:7215      MisBP:0   MisRate:0.00%    MPKI:0.00
PC:16668     Total:7349      MisBP:0   MisRate:0.00%    MPKI:0.00
PC:1667a     Total:7214      MisBP:0   MisRate:0.00%    MPKI:0.00
PC:3f766     Total:7041      MisBP:0   MisRate:0.00%    MPKI:0.00
PC:16680     Total:7025      MisBP:0   MisRate:0.00%    MPKI:0.00
PC:30030     Total:426      MisBP:0   MisRate:0.00%    MPKI:0.00
PC:1bbec     Total:35      MisBP:0   MisRate:0.00%    MPKI:0.00
PC:30034     Total:421      MisBP:0   MisRate:0.00%    MPKI:0.00
PC:16eea     Total:2918      MisBP:0   MisRate:0.00%    MPKI:0.00
PC:3f772     Total:8045      MisBP:0   MisRate:0.00%    MPKI:0.00
PC:3d36c     Total:18862      MisBP:0   MisRate:0.00%    MPKI:0.00
PC:7c820     Total:38      MisBP:0   MisRate:0.00%    MPKI:0.00
PC:15dd2     Total:22454      MisBP:0   MisRate:0.00%    MPKI:0.00
PC:7c82e     Total:21      MisBP:0   MisRate:0.00%    MPKI:0.00
PC:15de0     Total:21638      MisBP:0   MisRate:0.00%    MPKI:0.00
PC:19d6c     Total:69      MisBP:0   MisRate:0.00%    MPKI:0.00
PC:2e5e2     Total:139      MisBP:0   MisRate:0.00%    MPKI:0.00
PC:479c0     Total:125      MisBP:0   MisRate:0.00%    MPKI:0.00
PC:3314a     Total:281      MisBP:0   MisRate:0.00%    MPKI:0.00
PC:42afc     Total:176      MisBP:0   MisRate:0.00%    MPKI:0.00
PC:16ec4     Total:9252      MisBP:0   MisRate:0.00%    MPKI:0.00
PC:beffe3c8     Total:1      MisBP:0   MisRate:0.00%    MPKI:0.00
PC:3f74c     Total:16659      MisBP:0   MisRate:0.00%    MPKI:0.00
PC:16ec8     Total:9252      MisBP:0   MisRate:0.00%    MPKI:0.00
PC:beffe3cc     Total:1      MisBP:0   MisRate:0.00%    MPKI:0.00
PC:3f750     Total:16657      MisBP:0   MisRate:0.00%    MPKI:0.00
PC:16ecc     Total:9251      MisBP:0   MisRate:0.00%    MPKI:0.00
PC:beffe3d0     Total:1      MisBP:0   MisRate:0.00%    MPKI:0.00
PC:47b32     Total:15073      MisBP:0   MisRate:0.00%    MPKI:0.00
PC:3e988     Total:3388      MisBP:0   MisRate:0.00%    MPKI:0.00
PC:1589c     Total:18462      MisBP:0   MisRate:0.00%    MPKI:0.00
PC:2e278     Total:4274      MisBP:0   MisRate:0.00%    MPKI:0.00
PC:42aee     Total:1838      MisBP:0   MisRate:0.00%    MPKI:0.00
PC:7c9e0     Total:13      MisBP:0   MisRate:0.00%    MPKI:0.00
PC:3f07e     Total:67      MisBP:0   MisRate:0.00%    MPKI:0.00
PC:15f92     Total:7234      MisBP:0   MisRate:0.00%    MPKI:0.00
PC:3e81a     Total:21088      MisBP:0   MisRate:0.00%    MPKI:0.00
PC:332bc     Total:125      MisBP:0   MisRate:0.00%    MPKI:0.00
PC:15f8c     Total:7234      MisBP:0   MisRate:0.00%    MPKI:0.00
PC:3e98a     Total:3388      MisBP:0   MisRate:0.00%    MPKI:0.00
PC:1589e     Total:18447      MisBP:0   MisRate:0.00%    MPKI:0.00
PC:beffdcfc     Total:1      MisBP:0   MisRate:0.00%    MPKI:0.00
PC:7c9e2     Total:13      MisBP:0   MisRate:0.00%    MPKI:0.00
PC:3f080     Total:67      MisBP:0   MisRate:0.00%    MPKI:0.00
PC:beffd498     Total:1      MisBP:0   MisRate:0.00%    MPKI:0.00
PC:15730     Total:110500      MisBP:0   MisRate:0.00%    MPKI:0.00
PC:3e81c     Total:21088      MisBP:0   MisRate:0.00%    MPKI:0.00
PC:2e26e     Total:105363      MisBP:0   MisRate:0.00%    MPKI:0.00
PC:3e974     Total:3098      MisBP:0   MisRate:0.00%    MPKI:0.00
PC:15888     Total:25385      MisBP:0   MisRate:0.00%    MPKI:0.00
PC:2e264     Total:96168      MisBP:0   MisRate:0.00%    MPKI:0.00
PC:42ada     Total:1840      MisBP:0   MisRate:0.00%    MPKI:0.00
PC:2e268     Total:96168      MisBP:0   MisRate:0.00%    MPKI:0.00
PC:42ade     Total:1840      MisBP:0   MisRate:0.00%    MPKI:0.00
PC:3e97c     Total:3619      MisBP:0   MisRate:0.00%    MPKI:0.00
PC:15892     Total:18767      MisBP:0   MisRate:0.00%    MPKI:0.00
PC:3e98e     Total:3388      MisBP:0   MisRate:0.00%    MPKI:0.00
PC:199f8     Total:35997      MisBP:0   MisRate:0.00%    MPKI:0.00
PC:42ae4     Total:1840      MisBP:0   MisRate:0.00%    MPKI:0.00
PC:beffdcf0     Total:1      MisBP:0   MisRate:0.00%    MPKI:0.00
PC:7c9d6     Total:8      MisBP:0   MisRate:0.00%    MPKI:0.00
PC:15f88     Total:7234      MisBP:0   MisRate:0.00%    MPKI:0.00
PC:3e982     Total:3388      MisBP:0   MisRate:0.00%    MPKI:0.00
PC:15896     Total:18940      MisBP:0   MisRate:0.00%    MPKI:0.00
PC:beffdcf4     Total:1      MisBP:0   MisRate:0.00%    MPKI:0.00
PC:42afa     Total:176      MisBP:0   MisRate:0.00%    MPKI:0.00
PC:3f088     Total:67      MisBP:0   MisRate:0.00%    MPKI:0.00
PC:7c9ea     Total:38      MisBP:0   MisRate:0.00%    MPKI:0.00
PC:15f9c     Total:5361      MisBP:0   MisRate:0.00%    MPKI:0.00
PC:beffd4a0     Total:1      MisBP:0   MisRate:0.00%    MPKI:0.00
PC:3e824     Total:26685      MisBP:0   MisRate:0.00%    MPKI:0.00
PC:158a8     Total:18505      MisBP:0   MisRate:0.00%    MPKI:0.00
PC:48bb6     Total:12      MisBP:0   MisRate:0.00%    MPKI:0.00
PC:1faca     Total:1265      MisBP:0   MisRate:0.00%    MPKI:0.00
PC:2e284     Total:3474      MisBP:0   MisRate:0.00%    MPKI:0.00
PC:42af8     Total:176      MisBP:0   MisRate:0.00%    MPKI:0.00
PC:15f9e     Total:5361      MisBP:0   MisRate:0.00%    MPKI:0.00
PC:1573a     Total:108386      MisBP:0   MisRate:0.00%    MPKI:0.00
PC:3e826     Total:26573      MisBP:0   MisRate:0.00%    MPKI:0.00
PC:332c8     Total:56      MisBP:0   MisRate:0.00%    MPKI:0.00
PC:47b3e     Total:13846      MisBP:0   MisRate:0.00%    MPKI:0.00
PC:336fa     Total:250      MisBP:0   MisRate:0.00%    MPKI:0.00
PC:2e286     Total:3474      MisBP:0   MisRate:0.00%    MPKI:0.00
PC:19a10     Total:17827      MisBP:0   MisRate:0.00%    MPKI:0.00
PC:2e280     Total:3474      MisBP:0   MisRate:0.00%    MPKI:0.00
PC:158a2     Total:18446      MisBP:0   MisRate:0.00%    MPKI:0.00
PC:2e27e     Total:4223      MisBP:0   MisRate:0.00%    MPKI:0.00
PC:19a08     Total:17827      MisBP:0   MisRate:0.00%    MPKI:0.00
PC:42af4     Total:1530      MisBP:0   MisRate:0.00%    MPKI:0.00
PC:15f98     Total:5365      MisBP:0   MisRate:0.00%    MPKI:0.00
PC:beffd49c     Total:1      MisBP:0   MisRate:0.00%    MPKI:0.00
PC:15734     Total:108469      MisBP:0   MisRate:0.00%    MPKI:0.00
PC:3e820     Total:26685      MisBP:0   MisRate:0.00%    MPKI:0.00
PC:30038     Total:421      MisBP:0   MisRate:0.00%    MPKI:0.00
PC:3f086     Total:67      MisBP:0   MisRate:0.00%    MPKI:0.00
PC:7c9e8     Total:228      MisBP:0   MisRate:0.00%    MPKI:0.00
PC:15f9a     Total:5362      MisBP:0   MisRate:0.00%    MPKI:0.00
PC:15736     Total:108454      MisBP:0   MisRate:0.00%    MPKI:0.00
PC:3e822     Total:26685      MisBP:0   MisRate:0.00%    MPKI:0.00
PC:99d12     Total:164      MisBP:0   MisRate:0.00%    MPKI:0.00
PC:47b3a     Total:13846      MisBP:0   MisRate:0.00%    MPKI:0.00
PC:19a0c     Total:17827      MisBP:0   MisRate:0.00%    MPKI:0.00
PC:3e830     Total:36300      MisBP:0   MisRate:0.00%    MPKI:0.00
PC:3fd38     Total:40      MisBP:0   MisRate:0.00%    MPKI:0.00
PC:16c4c     Total:2209      MisBP:0   MisRate:0.00%    MPKI:0.00
PC:1661c     Total:8143      MisBP:0   MisRate:0.00%    MPKI:0.00
PC:beffd4a8     Total:1      MisBP:0   MisRate:0.00%    MPKI:0.00
PC:3e82c     Total:26573      MisBP:0   MisRate:0.00%    MPKI:0.00
PC:2fd9a     Total:2737      MisBP:0   MisRate:0.00%    MPKI:0.00
PC:301cc     Total:181      MisBP:0   MisRate:0.00%    MPKI:0.00
PC:1b956     Total:67660      MisBP:0   MisRate:0.00%    MPKI:0.00
PC:beffd4ac     Total:1      MisBP:0   MisRate:0.00%    MPKI:0.00
PC:1b952     Total:67660      MisBP:0   MisRate:0.00%    MPKI:0.00
PC:3fc76     Total:12      MisBP:0   MisRate:0.00%    MPKI:0.00
PC:16b8a     Total:10219      MisBP:0   MisRate:0.00%    MPKI:0.00
PC:2fd9e     Total:2736      MisBP:0   MisRate:0.00%    MPKI:0.00
PC:301d0     Total:181      MisBP:0   MisRate:0.00%    MPKI:0.00
PC:1b95a     Total:68415      MisBP:0   MisRate:0.00%    MPKI:0.00
PC:16c54     Total:2209      MisBP:0   MisRate:0.00%    MPKI:0.00
PC:163f0     Total:21196      MisBP:0   MisRate:0.00%    MPKI:0.00
PC:3f4dc     Total:2213      MisBP:0   MisRate:0.00%    MPKI:0.00
PC:2fd92     Total:3208      MisBP:0   MisRate:0.00%    MPKI:0.00
PC:3fc66     Total:14      MisBP:0   MisRate:0.00%    MPKI:0.00
PC:16b7a     Total:7855      MisBP:0   MisRate:0.00%    MPKI:0.00
PC:1b948     Total:687638      MisBP:0   MisRate:0.00%    MPKI:0.00
PC:1b450     Total:41      MisBP:0   MisRate:0.00%    MPKI:0.00
PC:2fcc6     Total:296      MisBP:0   MisRate:0.00%    MPKI:0.00
PC:301c2     Total:181      MisBP:0   MisRate:0.00%    MPKI:0.00
PC:1b94c     Total:67691      MisBP:0   MisRate:0.00%    MPKI:0.00
PC:16c46     Total:2209      MisBP:0   MisRate:0.00%    MPKI:0.00
PC:beffd4b0     Total:2      MisBP:0   MisRate:0.00%    MPKI:0.00
PC:3fd34     Total:40      MisBP:0   MisRate:0.00%    MPKI:0.00
PC:16c48     Total:2209      MisBP:0   MisRate:0.00%    MPKI:0.00
PC:163e4     Total:36518      MisBP:0   MisRate:0.00%    MPKI:0.00
PC:3f4d0     Total:28763      MisBP:0   MisRate:0.00%    MPKI:0.00
PC:3fc6e     Total:13      MisBP:0   MisRate:0.00%    MPKI:0.00
PC:16b82     Total:10219      MisBP:0   MisRate:0.00%    MPKI:0.00
PC:2fd96     Total:3208      MisBP:0   MisRate:0.00%    MPKI:0.00
PC:301c8     Total:181      MisBP:0   MisRate:0.00%    MPKI:0.00
PC:2fcf0     Total:7194      MisBP:0   MisRate:0.00%    MPKI:0.00
PC:2fdb2     Total:2446      MisBP:0   MisRate:0.00%    MPKI:0.00
PC:301e4     Total:1192      MisBP:0   MisRate:0.00%    MPKI:0.00
PC:1b96e     Total:66106      MisBP:0   MisRate:0.00%    MPKI:0.00
PC:3fd54     Total:517      MisBP:0   MisRate:0.00%    MPKI:0.00
PC:16c68     Total:2184      MisBP:0   MisRate:0.00%    MPKI:0.00
PC:1b540     Total:317      MisBP:0   MisRate:0.00%    MPKI:0.00
PC:2fdb6     Total:2446      MisBP:0   MisRate:0.00%    MPKI:0.00
PC:301e8     Total:1192      MisBP:0   MisRate:0.00%    MPKI:0.00
PC:1b972     Total:66106      MisBP:0   MisRate:0.00%    MPKI:0.00
PC:1b8a4     Total:7006      MisBP:0   MisRate:0.00%    MPKI:0.00
PC:1b544     Total:317      MisBP:0   MisRate:0.00%    MPKI:0.00
PC:2fdba     Total:2446      MisBP:0   MisRate:0.00%    MPKI:0.00
PC:301ec     Total:1040      MisBP:0   MisRate:0.00%    MPKI:0.00
PC:1b976     Total:928      MisBP:0   MisRate:0.00%    MPKI:0.00
PC:16c70     Total:2188      MisBP:0   MisRate:0.00%    MPKI:0.00
PC:301f4     Total:336      MisBP:0   MisRate:0.00%    MPKI:0.00
PC:1b97e     Total:928      MisBP:0   MisRate:0.00%    MPKI:0.00
PC:16c78     Total:2128      MisBP:0   MisRate:0.00%    MPKI:0.00
PC:2fce2     Total:316      MisBP:0   MisRate:0.00%    MPKI:0.00
PC:3e834     Total:9812      MisBP:0   MisRate:0.00%    MPKI:0.00
PC:7c9fa     Total:37      MisBP:0   MisRate:0.00%    MPKI:0.00
PC:15fac     Total:5360      MisBP:0   MisRate:0.00%    MPKI:0.00
PC:301d2     Total:1193      MisBP:0   MisRate:0.00%    MPKI:0.00
PC:1b95c     Total:67235      MisBP:0   MisRate:0.00%    MPKI:0.00
PC:2fcda     Total:317      MisBP:0   MisRate:0.00%    MPKI:0.00
PC:1bbd6     Total:108      MisBP:0   MisRate:0.00%    MPKI:0.00
PC:1662e     Total:7939      MisBP:0   MisRate:0.00%    MPKI:0.00
PC:16c40     Total:2209      MisBP:0   MisRate:0.00%    MPKI:0.00
PC:1bbda     Total:180      MisBP:0   MisRate:0.00%    MPKI:0.00
PC:2fdaa     Total:2472      MisBP:0   MisRate:0.00%    MPKI:0.00
PC:301dc     Total:1192      MisBP:0   MisRate:0.00%    MPKI:0.00
PC:1b966     Total:67954      MisBP:0   MisRate:0.00%    MPKI:0.00
PC:301e0     Total:1192      MisBP:0   MisRate:0.00%    MPKI:0.00
PC:1b96a     Total:67952      MisBP:0   MisRate:0.00%    MPKI:0.00
PC:16c64     Total:4368      MisBP:0   MisRate:0.00%    MPKI:0.00
PC:2fce8     Total:315      MisBP:0   MisRate:0.00%    MPKI:0.00
PC:16c1c     Total:4234      MisBP:0   MisRate:0.00%    MPKI:0.00
PC:2f728     Total:329      MisBP:0   MisRate:0.00%    MPKI:0.00
PC:15d7a     Total:20456      MisBP:0   MisRate:0.00%    MPKI:0.00
PC:3ee66     Total:6367      MisBP:0   MisRate:0.00%    MPKI:0.00
PC:3fd04     Total:10      MisBP:0   MisRate:0.00%    MPKI:0.00
PC:16c18     Total:4234      MisBP:0   MisRate:0.00%    MPKI:0.00
PC:1b426     Total:32      MisBP:0   MisRate:0.00%    MPKI:0.00
PC:3fc3e     Total:21      MisBP:0   MisRate:0.00%    MPKI:0.00
PC:16b52     Total:6804      MisBP:0   MisRate:0.00%    MPKI:0.00
PC:3fd08     Total:10      MisBP:0   MisRate:0.00%    MPKI:0.00
PC:3ee62     Total:6367      MisBP:0   MisRate:0.00%    MPKI:0.00
PC:3f4a4     Total:29584      MisBP:0   MisRate:0.00%    MPKI:0.00
PC:3fc42     Total:18      MisBP:0   MisRate:0.00%    MPKI:0.00
PC:16b56     Total:6473      MisBP:0   MisRate:0.00%    MPKI:0.00
PC:3019c     Total:250      MisBP:0   MisRate:0.00%    MPKI:0.00
PC:1b926     Total:1237      MisBP:0   MisRate:0.00%    MPKI:0.00
PC:3fd0c     Total:10      MisBP:0   MisRate:0.00%    MPKI:0.00
PC:16c20     Total:4217      MisBP:0   MisRate:0.00%    MPKI:0.00
PC:3f4a8     Total:29584      MisBP:0   MisRate:0.00%    MPKI:0.00
PC:36a4c     Total:738      MisBP:0   MisRate:0.00%    MPKI:0.00
PC:1bbf4     Total:31      MisBP:0   MisRate:0.00%    MPKI:0.00
PC:3f778     Total:8086      MisBP:0   MisRate:0.00%    MPKI:0.00
PC:3f77c     Total:8086      MisBP:0   MisRate:0.00%    MPKI:0.00
PC:3ee2a     Total:366      MisBP:0   MisRate:0.00%    MPKI:0.00
PC:3f690     Total:236      MisBP:0   MisRate:0.00%    MPKI:0.00
PC:165a4     Total:17106      MisBP:0   MisRate:0.00%    MPKI:0.00
PC:3ee2e     Total:361      MisBP:0   MisRate:0.00%    MPKI:0.00
PC:31a0a     Total:627      MisBP:0   MisRate:0.00%    MPKI:0.00
PC:3fc46     Total:18      MisBP:0   MisRate:0.00%    MPKI:0.00
PC:7cffa     Total:503      MisBP:0   MisRate:0.00%    MPKI:0.00
PC:165ac     Total:16590      MisBP:0   MisRate:0.00%    MPKI:0.00
PC:3ee34     Total:296      MisBP:0   MisRate:0.00%    MPKI:0.00
PC:3ee44     Total:10123      MisBP:0   MisRate:0.00%    MPKI:0.00
PC:3ee48     Total:33576      MisBP:0   MisRate:0.00%    MPKI:0.00
PC:15d66     Total:20463      MisBP:0   MisRate:0.00%    MPKI:0.00
PC:3ee52     Total:33576      MisBP:0   MisRate:0.00%    MPKI:0.00
PC:3ee5a     Total:33576      MisBP:0   MisRate:0.00%    MPKI:0.00
PC:1b93a     Total:671      MisBP:0   MisRate:0.00%    MPKI:0.00
PC:3fd1e     Total:41      MisBP:0   MisRate:0.00%    MPKI:0.00
PC:16c32     Total:4217      MisBP:0   MisRate:0.00%    MPKI:0.00
PC:163ce     Total:39062      MisBP:0   MisRate:0.00%    MPKI:0.00
PC:3f4ba     Total:26227      MisBP:0   MisRate:0.00%    MPKI:0.00
PC:2fcb6     Total:338      MisBP:0   MisRate:0.00%    MPKI:0.00
PC:3fc58     Total:14      MisBP:0   MisRate:0.00%    MPKI:0.00
PC:16b6c     Total:6939      MisBP:0   MisRate:0.00%    MPKI:0.00
PC:301b0     Total:223      MisBP:0   MisRate:0.00%    MPKI:0.00
PC:3f4b6     Total:29551      MisBP:0   MisRate:0.00%    MPKI:0.00
PC:16c34     Total:4196      MisBP:0   MisRate:0.00%    MPKI:0.00
PC:3fd24     Total:41      MisBP:0   MisRate:0.00%    MPKI:0.00
PC:16c38     Total:4196      MisBP:0   MisRate:0.00%    MPKI:0.00
PC:1bbb6     Total:295      MisBP:0   MisRate:0.00%    MPKI:0.00
PC:2fd88     Total:3322      MisBP:0   MisRate:0.00%    MPKI:0.00
PC:16c3e     Total:2772      MisBP:0   MisRate:0.00%    MPKI:0.00
PC:3e81e     Total:21088      MisBP:0   MisRate:0.00%    MPKI:0.00
PC:3fd2c     Total:40      MisBP:0   MisRate:0.00%    MPKI:0.00
PC:1bba0     Total:295      MisBP:0   MisRate:0.00%    MPKI:0.00
PC:16b5a     Total:6473      MisBP:0   MisRate:0.00%    MPKI:0.00
PC:1bb9c     Total:295      MisBP:0   MisRate:0.00%    MPKI:0.00
PC:301a0     Total:250      MisBP:0   MisRate:0.00%    MPKI:0.00
PC:1b92a     Total:1237      MisBP:0   MisRate:0.00%    MPKI:0.00
PC:3fd10     Total:113      MisBP:0   MisRate:0.00%    MPKI:0.00
PC:16c24     Total:4217      MisBP:0   MisRate:0.00%    MPKI:0.00
PC:3f4ac     Total:29584      MisBP:0   MisRate:0.00%    MPKI:0.00
PC:16b5e     Total:6740      MisBP:0   MisRate:0.00%    MPKI:0.00
PC:47f60     Total:836      MisBP:0   MisRate:0.00%    MPKI:0.00
PC:3fc4e     Total:30      MisBP:0   MisRate:0.00%    MPKI:0.00
PC:16b62     Total:6740      MisBP:0   MisRate:0.00%    MPKI:0.00
PC:1bba4     Total:295      MisBP:0   MisRate:0.00%    MPKI:0.00
PC:3fd16     Total:112      MisBP:0   MisRate:0.00%    MPKI:0.00
PC:16c2a     Total:4217      MisBP:0   MisRate:0.00%    MPKI:0.00
PC:1b934     Total:891      MisBP:0   MisRate:0.00%    MPKI:0.00
PC:16c2e     Total:4217      MisBP:0   MisRate:0.00%    MPKI:0.00
PC:163ca     Total:39064      MisBP:0   MisRate:0.00%    MPKI:0.00
PC:5176e     Total:348      MisBP:0   MisRate:0.00%    MPKI:0.00
PC:2e2d6     Total:4343      MisBP:0   MisRate:0.00%    MPKI:0.00
PC:42b4c     Total:2      MisBP:0   MisRate:0.00%    MPKI:0.00
PC:19e92     Total:40      MisBP:0   MisRate:0.00%    MPKI:0.00
PC:2e708     Total:84      MisBP:0   MisRate:0.00%    MPKI:0.00
PC:483a4     Total:956      MisBP:0   MisRate:0.00%    MPKI:0.00
PC:48c08     Total:3      MisBP:0   MisRate:0.00%    MPKI:0.00
PC:1fb1c     Total:121      MisBP:0   MisRate:0.00%    MPKI:0.00
PC:19d2a     Total:65      MisBP:0   MisRate:0.00%    MPKI:0.00
PC:2e5a0     Total:667      MisBP:0   MisRate:0.00%    MPKI:0.00
PC:3374a     Total:81      MisBP:0   MisRate:0.00%    MPKI:0.00
PC:28ab4     Total:1001      MisBP:0   MisRate:0.00%    MPKI:0.00
[...]
PC:31ba6     Total:137708      MisBP:6213   MisRate:4.51%    MPKI:0.02
PC:2d588     Total:71895      MisBP:6217   MisRate:8.65%    MPKI:0.02
PC:1596a     Total:116129      MisBP:6235   MisRate:5.37%    MPKI:0.02
PC:19270     Total:62638      MisBP:6235   MisRate:9.95%    MPKI:0.02
PC:1931c     Total:55956      MisBP:6257   MisRate:11.18%    MPKI:0.02
PC:3c660     Total:29130      MisBP:6353   MisRate:21.81%    MPKI:0.02
PC:2d6b2     Total:136378      MisBP:6369   MisRate:4.67%    MPKI:0.02
PC:3ec20     Total:30355      MisBP:6377   MisRate:21.01%    MPKI:0.02
PC:3c5cc     Total:42186      MisBP:6403   MisRate:15.18%    MPKI:0.02
PC:15d22     Total:27510      MisBP:6460   MisRate:23.48%    MPKI:0.02
PC:2d64a     Total:55469      MisBP:6489   MisRate:11.70%    MPKI:0.02
PC:162d0     Total:22322      MisBP:6494   MisRate:29.09%    MPKI:0.02
PC:2ca44     Total:143785      MisBP:6498   MisRate:4.52%    MPKI:0.02
PC:513b0     Total:49593      MisBP:6534   MisRate:13.18%    MPKI:0.02
PC:1c826     Total:138470      MisBP:6551   MisRate:4.73%    MPKI:0.02
PC:2ccd0     Total:108683      MisBP:6613   MisRate:6.08%    MPKI:0.02
PC:1bf82     Total:118468      MisBP:6620   MisRate:5.59%    MPKI:0.02
PC:1adcc     Total:66922      MisBP:6622   MisRate:9.90%    MPKI:0.02
PC:2fd46     Total:84235      MisBP:6659   MisRate:7.91%    MPKI:0.02
PC:17eb8     Total:27535      MisBP:6673   MisRate:24.23%    MPKI:0.02
PC:2cdc2     Total:114556      MisBP:6868   MisRate:6.00%    MPKI:0.02
PC:3f49c     Total:37461      MisBP:6880   MisRate:18.37%    MPKI:0.02
PC:18a14     Total:44651      MisBP:6902   MisRate:15.46%    MPKI:0.02
PC:1c564     Total:14597      MisBP:6909   MisRate:47.33%    MPKI:0.02
PC:3cb10     Total:45479      MisBP:6912   MisRate:15.20%    MPKI:0.02
PC:15e30     Total:22301      MisBP:6918   MisRate:31.02%    MPKI:0.02
PC:19302     Total:92660      MisBP:6934   MisRate:7.48%    MPKI:0.02
PC:3ce9a     Total:23274      MisBP:6969   MisRate:29.94%    MPKI:0.02
PC:2e3ec     Total:79275      MisBP:7001   MisRate:8.83%    MPKI:0.02
PC:3cd7e     Total:30961      MisBP:7014   MisRate:22.65%    MPKI:0.02
PC:2cd7e     Total:102056      MisBP:7064   MisRate:6.92%    MPKI:0.02
PC:199de     Total:68919      MisBP:7070   MisRate:10.26%    MPKI:0.02
PC:47b60     Total:37035      MisBP:7084   MisRate:19.13%    MPKI:0.02
PC:16198     Total:25407      MisBP:7087   MisRate:27.89%    MPKI:0.02
PC:19a82     Total:371889      MisBP:7133   MisRate:1.92%    MPKI:0.02
PC:190ce     Total:50485      MisBP:7137   MisRate:14.14%    MPKI:0.02
PC:15942     Total:63483      MisBP:7143   MisRate:11.25%    MPKI:0.02
PC:192cc     Total:94821      MisBP:7180   MisRate:7.57%    MPKI:0.02
PC:2cdee     Total:140506      MisBP:7231   MisRate:5.15%    MPKI:0.02
PC:3bfc4     Total:76061      MisBP:7251   MisRate:9.53%    MPKI:0.02
PC:513c2     Total:45010      MisBP:7284   MisRate:16.18%    MPKI:0.02
PC:3cff0     Total:27170      MisBP:7312   MisRate:26.91%    MPKI:0.02
PC:1927e     Total:62594      MisBP:7314   MisRate:11.68%    MPKI:0.02
PC:1973e     Total:47680      MisBP:7325   MisRate:15.36%    MPKI:0.02
PC:18fce     Total:64452      MisBP:7348   MisRate:11.40%    MPKI:0.02
PC:31b32     Total:128036      MisBP:7380   MisRate:5.76%    MPKI:0.02
PC:15bea     Total:51981      MisBP:7413   MisRate:14.26%    MPKI:0.02
PC:2ca86     Total:156638      MisBP:7414   MisRate:4.73%    MPKI:0.02
PC:40936     Total:25256      MisBP:7427   MisRate:29.41%    MPKI:0.02
PC:1c15c     Total:64544      MisBP:7445   MisRate:11.53%    MPKI:0.02
PC:3f4a2     Total:34299      MisBP:7448   MisRate:21.71%    MPKI:0.02
PC:2fd2c     Total:129824      MisBP:7467   MisRate:5.75%    MPKI:0.02
PC:192c0     Total:89586      MisBP:7497   MisRate:8.37%    MPKI:0.02
PC:19748     Total:47334      MisBP:7628   MisRate:16.12%    MPKI:0.02
PC:306ea     Total:341775      MisBP:7630   MisRate:2.23%    MPKI:0.02
PC:1add0     Total:60554      MisBP:7659   MisRate:12.65%    MPKI:0.02
PC:158ca     Total:70834      MisBP:7702   MisRate:10.87%    MPKI:0.02
PC:15c9c     Total:50530      MisBP:7734   MisRate:15.31%    MPKI:0.02
PC:2e3bc     Total:50428      MisBP:7736   MisRate:15.34%    MPKI:0.02
PC:18f26     Total:61042      MisBP:7757   MisRate:12.71%    MPKI:0.03
PC:3c64a     Total:37038      MisBP:7802   MisRate:21.06%    MPKI:0.03
PC:2fd1e     Total:130822      MisBP:7819   MisRate:5.98%    MPKI:0.03
PC:2d3f2     Total:128571      MisBP:7889   MisRate:6.14%    MPKI:0.03
PC:1ac4c     Total:98407      MisBP:7890   MisRate:8.02%    MPKI:0.03
PC:319c2     Total:71240      MisBP:7903   MisRate:11.09%    MPKI:0.03
PC:31996     Total:180869      MisBP:7942   MisRate:4.39%    MPKI:0.03
PC:2d294     Total:220285      MisBP:7966   MisRate:3.62%    MPKI:0.03
PC:15e94     Total:25244      MisBP:8022   MisRate:31.78%    MPKI:0.03
PC:30456     Total:54689      MisBP:8100   MisRate:14.81%    MPKI:0.03
PC:190a6     Total:42317      MisBP:8243   MisRate:19.48%    MPKI:0.03
PC:3c264     Total:91927      MisBP:8249   MisRate:8.97%    MPKI:0.03
PC:3f4cc     Total:38356      MisBP:8267   MisRate:21.55%    MPKI:0.03
PC:192ea     Total:91286      MisBP:8283   MisRate:9.07%    MPKI:0.03
PC:18df0     Total:67867      MisBP:8285   MisRate:12.21%    MPKI:0.03
PC:1c04a     Total:94417      MisBP:8299   MisRate:8.79%    MPKI:0.03
PC:2d644     Total:42616      MisBP:8412   MisRate:19.74%    MPKI:0.03
PC:2cd8e     Total:101825      MisBP:8447   MisRate:8.30%    MPKI:0.03
PC:1accc     Total:46062      MisBP:8539   MisRate:18.54%    MPKI:0.03
PC:3f4d2     Total:28760      MisBP:8555   MisRate:29.75%    MPKI:0.03
PC:410ee     Total:27156      MisBP:8593   MisRate:31.64%    MPKI:0.03
PC:15972     Total:106628      MisBP:8618   MisRate:8.08%    MPKI:0.03
PC:3ce0a     Total:29763      MisBP:8655   MisRate:29.08%    MPKI:0.03
PC:2d2c8     Total:22642      MisBP:8760   MisRate:38.69%    MPKI:0.03
PC:28796     Total:121635      MisBP:8794   MisRate:7.23%    MPKI:0.03
PC:159ce     Total:110069      MisBP:8941   MisRate:8.12%    MPKI:0.03
PC:159d4     Total:89873      MisBP:9022   MisRate:10.04%    MPKI:0.03
PC:19a52     Total:53944      MisBP:9041   MisRate:16.76%    MPKI:0.03
PC:3ec4e     Total:23823      MisBP:9064   MisRate:38.05%    MPKI:0.03
PC:1c796     Total:181531      MisBP:9067   MisRate:4.99%    MPKI:0.03
PC:159e8     Total:91264      MisBP:9120   MisRate:9.99%    MPKI:0.03
PC:1c0b6     Total:52010      MisBP:9137   MisRate:17.57%    MPKI:0.03
PC:18bec     Total:614870      MisBP:9255   MisRate:1.51%    MPKI:0.03
PC:164b4     Total:35704      MisBP:9288   MisRate:26.01%    MPKI:0.03
PC:24ccc     Total:122924      MisBP:9308   MisRate:7.57%    MPKI:0.03
PC:18eba     Total:55369      MisBP:9308   MisRate:16.81%    MPKI:0.03
PC:2ce48     Total:130267      MisBP:9433   MisRate:7.24%    MPKI:0.03
PC:3ec3c     Total:60453      MisBP:9502   MisRate:15.72%    MPKI:0.03
PC:3c298     Total:52262      MisBP:9508   MisRate:18.19%    MPKI:0.03
PC:1ad02     Total:38098      MisBP:9585   MisRate:25.16%    MPKI:0.03
PC:1ad06     Total:57804      MisBP:9665   MisRate:16.72%    MPKI:0.03
PC:1882e     Total:168914      MisBP:9689   MisRate:5.74%    MPKI:0.03
PC:3e748     Total:39757      MisBP:9764   MisRate:24.56%    MPKI:0.03
PC:2cda0     Total:113986      MisBP:9796   MisRate:8.59%    MPKI:0.03
PC:19a6c     Total:54526      MisBP:9925   MisRate:18.20%    MPKI:0.03
PC:18f84     Total:56002      MisBP:9935   MisRate:17.74%    MPKI:0.03
PC:2caae     Total:70894      MisBP:9961   MisRate:14.05%    MPKI:0.03
PC:2d7f6     Total:154246      MisBP:10120   MisRate:6.56%    MPKI:0.03
PC:192f6     Total:94436      MisBP:10326   MisRate:10.93%    MPKI:0.03
PC:306c2     Total:303689      MisBP:10353   MisRate:3.41%    MPKI:0.03
PC:1c55c     Total:15539      MisBP:10359   MisRate:66.66%    MPKI:0.03
PC:3cfa6     Total:171368      MisBP:10359   MisRate:6.04%    MPKI:0.03
PC:1acb8     Total:45414      MisBP:10453   MisRate:23.02%    MPKI:0.03
PC:2d2be     Total:38684      MisBP:10624   MisRate:27.46%    MPKI:0.03
PC:314ce     Total:197482      MisBP:10664   MisRate:5.40%    MPKI:0.03
PC:1acf6     Total:50256      MisBP:11048   MisRate:21.98%    MPKI:0.04
PC:18dfa     Total:92595      MisBP:11058   MisRate:11.94%    MPKI:0.04
PC:1acd6     Total:85896      MisBP:11123   MisRate:12.95%    MPKI:0.04
PC:286ac     Total:170509      MisBP:11375   MisRate:6.67%    MPKI:0.04
PC:2d47c     Total:62865      MisBP:11420   MisRate:18.17%    MPKI:0.04
PC:15c92     Total:67676      MisBP:11441   MisRate:16.91%    MPKI:0.04
PC:28788     Total:133117      MisBP:11557   MisRate:8.68%    MPKI:0.04
PC:3c692     Total:62628      MisBP:11574   MisRate:18.48%    MPKI:0.04
PC:2ce78     Total:41772      MisBP:11669   MisRate:27.93%    MPKI:0.04
PC:41130     Total:33852      MisBP:11748   MisRate:34.70%    MPKI:0.04
PC:15b50     Total:48570      MisBP:11794   MisRate:24.28%    MPKI:0.04
PC:1acaa     Total:58489      MisBP:11859   MisRate:20.28%    MPKI:0.04
PC:154b2     Total:268966      MisBP:11923   MisRate:4.43%    MPKI:0.04
PC:2d6cc     Total:100495      MisBP:12016   MisRate:11.96%    MPKI:0.04
PC:19614     Total:290324      MisBP:12025   MisRate:4.14%    MPKI:0.04
PC:1c82c     Total:180862      MisBP:12047   MisRate:6.66%    MPKI:0.04
PC:2cb22     Total:153397      MisBP:12143   MisRate:7.92%    MPKI:0.04
PC:3ce46     Total:59955      MisBP:12161   MisRate:20.28%    MPKI:0.04
PC:3bfda     Total:91913      MisBP:12283   MisRate:13.36%    MPKI:0.04
PC:1c790     Total:165504      MisBP:12344   MisRate:7.46%    MPKI:0.04
PC:3ce00     Total:57504      MisBP:12441   MisRate:21.64%    MPKI:0.04
PC:3c7bc     Total:68292      MisBP:12502   MisRate:18.31%    MPKI:0.04
PC:288b8     Total:190974      MisBP:12573   MisRate:6.58%    MPKI:0.04
PC:19754     Total:96680      MisBP:12943   MisRate:13.39%    MPKI:0.04
PC:1b830     Total:31554      MisBP:12987   MisRate:41.16%    MPKI:0.04
PC:3c7e0     Total:90521      MisBP:12997   MisRate:14.36%    MPKI:0.04
PC:2d7fe     Total:132933      MisBP:13013   MisRate:9.79%    MPKI:0.04
PC:2d6bc     Total:121740      MisBP:13140   MisRate:10.79%    MPKI:0.04
PC:319c8     Total:70710      MisBP:13230   MisRate:18.71%    MPKI:0.04
PC:3c7ee     Total:75294      MisBP:13288   MisRate:17.65%    MPKI:0.04
PC:17de6     Total:62701      MisBP:13396   MisRate:21.36%    MPKI:0.04
PC:199dc     Total:105628      MisBP:13434   MisRate:12.72%    MPKI:0.04
PC:1973c     Total:94515      MisBP:13664   MisRate:14.46%    MPKI:0.04
PC:30696     Total:331659      MisBP:13683   MisRate:4.13%    MPKI:0.04
PC:3cb1a     Total:55942      MisBP:13869   MisRate:24.79%    MPKI:0.04
PC:51358     Total:1198062      MisBP:13962   MisRate:1.17%    MPKI:0.05
PC:17e74     Total:47016      MisBP:14005   MisRate:29.79%    MPKI:0.05
PC:159ee     Total:84324      MisBP:14269   MisRate:16.92%    MPKI:0.05
PC:1acbc     Total:69357      MisBP:14274   MisRate:20.58%    MPKI:0.05
PC:3199e     Total:180749      MisBP:14291   MisRate:7.91%    MPKI:0.05
PC:159f8     Total:77365      MisBP:14644   MisRate:18.93%    MPKI:0.05
PC:15950     Total:71254      MisBP:14681   MisRate:20.60%    MPKI:0.05
PC:17fcc     Total:121444      MisBP:14695   MisRate:12.10%    MPKI:0.05
PC:2d6d0     Total:119870      MisBP:14823   MisRate:12.37%    MPKI:0.05
PC:15a08     Total:89810      MisBP:14843   MisRate:16.53%    MPKI:0.05
PC:159fe     Total:80420      MisBP:14995   MisRate:18.65%    MPKI:0.05
PC:2f3f4     Total:150949      MisBP:15077   MisRate:9.99%    MPKI:0.05
PC:3c7b2     Total:91928      MisBP:15121   MisRate:16.45%    MPKI:0.05
PC:15a0e     Total:104187      MisBP:15139   MisRate:14.53%    MPKI:0.05
PC:2caf6     Total:104728      MisBP:15348   MisRate:14.66%    MPKI:0.05
PC:2ca4a     Total:83347      MisBP:15494   MisRate:18.59%    MPKI:0.05
PC:2cd76     Total:105549      MisBP:15510   MisRate:14.69%    MPKI:0.05
PC:1aca4     Total:74481      MisBP:15738   MisRate:21.13%    MPKI:0.05
PC:156b6     Total:208682      MisBP:15927   MisRate:7.63%    MPKI:0.05
PC:3be8e     Total:92078      MisBP:15960   MisRate:17.33%    MPKI:0.05
PC:2d576     Total:89328      MisBP:16096   MisRate:18.02%    MPKI:0.05
PC:1ace0     Total:88302      MisBP:16289   MisRate:18.45%    MPKI:0.05
PC:2cb26     Total:160696      MisBP:16748   MisRate:10.42%    MPKI:0.05
PC:2ca8c     Total:152878      MisBP:16808   MisRate:10.99%    MPKI:0.05
PC:1576e     Total:96304      MisBP:17018   MisRate:17.67%    MPKI:0.05
PC:14e64     Total:106142      MisBP:17084   MisRate:16.10%    MPKI:0.06
PC:2cdc8     Total:133799      MisBP:17330   MisRate:12.95%    MPKI:0.06
PC:306c6     Total:301082      MisBP:17364   MisRate:5.77%    MPKI:0.06
PC:14e10     Total:67400      MisBP:17424   MisRate:25.85%    MPKI:0.06
PC:2fd58     Total:107782      MisBP:17850   MisRate:16.56%    MPKI:0.06
PC:176c2     Total:104311      MisBP:18004   MisRate:17.26%    MPKI:0.06
PC:1aca0     Total:90571      MisBP:18098   MisRate:19.98%    MPKI:0.06
PC:319bc     Total:174160      MisBP:18127   MisRate:10.41%    MPKI:0.06
PC:2cd68     Total:137972      MisBP:18283   MisRate:13.25%    MPKI:0.06
PC:1b7f4     Total:58186      MisBP:18416   MisRate:31.65%    MPKI:0.06
PC:2cca2     Total:136339      MisBP:18954   MisRate:13.90%    MPKI:0.06
PC:18e00     Total:238631      MisBP:19025   MisRate:7.97%    MPKI:0.06
PC:15964     Total:108005      MisBP:19253   MisRate:17.83%    MPKI:0.06
PC:2cc6c     Total:130468      MisBP:19307   MisRate:14.80%    MPKI:0.06
PC:1c77e     Total:91099      MisBP:19448   MisRate:21.35%    MPKI:0.06
PC:3bfc6     Total:78615      MisBP:19490   MisRate:24.79%    MPKI:0.06
PC:2e870     Total:193278      MisBP:19546   MisRate:10.11%    MPKI:0.06
PC:18d72     Total:91976      MisBP:19903   MisRate:21.64%    MPKI:0.06
PC:2d2ae     Total:103161      MisBP:19976   MisRate:19.36%    MPKI:0.06
PC:512ba     Total:158201      MisBP:20345   MisRate:12.86%    MPKI:0.07
PC:18f6a     Total:204666      MisBP:20795   MisRate:10.16%    MPKI:0.07
PC:18d6a     Total:79982      MisBP:20899   MisRate:26.13%    MPKI:0.07
PC:9e50c     Total:593037      MisBP:20946   MisRate:3.53%    MPKI:0.07
PC:18d56     Total:117521      MisBP:21292   MisRate:18.12%    MPKI:0.07
PC:18dde     Total:78354      MisBP:21411   MisRate:27.33%    MPKI:0.07
PC:18d76     Total:102545      MisBP:21468   MisRate:20.94%    MPKI:0.07
PC:2cc64     Total:277396      MisBP:21577   MisRate:7.78%    MPKI:0.07
PC:2cd4a     Total:165459      MisBP:21743   MisRate:13.14%    MPKI:0.07
PC:2893e     Total:558929      MisBP:21984   MisRate:3.93%    MPKI:0.07
PC:192ac     Total:171973      MisBP:22158   MisRate:12.88%    MPKI:0.07
PC:51368     Total:988764      MisBP:22290   MisRate:2.25%    MPKI:0.07
PC:2cc86     Total:487452      MisBP:22582   MisRate:4.63%    MPKI:0.07
PC:199f6     Total:138596      MisBP:22757   MisRate:16.42%    MPKI:0.07
PC:14ea4     Total:117198      MisBP:22882   MisRate:19.52%    MPKI:0.07
PC:1c088     Total:72065      MisBP:23248   MisRate:32.26%    MPKI:0.07
PC:1595a     Total:86583      MisBP:23266   MisRate:26.87%    MPKI:0.08
PC:1c01e     Total:138014      MisBP:23279   MisRate:16.87%    MPKI:0.08
PC:1c1d2     Total:100610      MisBP:23687   MisRate:23.54%    MPKI:0.08
PC:14fb8     Total:470834      MisBP:23799   MisRate:5.05%    MPKI:0.08
PC:1c12c     Total:140967      MisBP:24370   MisRate:17.29%    MPKI:0.08
PC:3cfac     Total:154871      MisBP:24506   MisRate:15.82%    MPKI:0.08
PC:3bf76     Total:717904      MisBP:24712   MisRate:3.44%    MPKI:0.08
PC:14ee6     Total:123458      MisBP:24746   MisRate:20.04%    MPKI:0.08
PC:14f26     Total:131490      MisBP:25552   MisRate:19.43%    MPKI:0.08
PC:2d29e     Total:211042      MisBP:25626   MisRate:12.14%    MPKI:0.08
PC:1c7d4     Total:86954      MisBP:25636   MisRate:29.48%    MPKI:0.08
PC:28718     Total:173776      MisBP:25731   MisRate:14.81%    MPKI:0.08
PC:15b40     Total:106051      MisBP:25774   MisRate:24.30%    MPKI:0.08
PC:2d7ee     Total:293698      MisBP:25833   MisRate:8.80%    MPKI:0.08
PC:1925a     Total:148068      MisBP:25951   MisRate:17.53%    MPKI:0.08
PC:3ca14     Total:215594      MisBP:26894   MisRate:12.47%    MPKI:0.09
PC:17dac     Total:85225      MisBP:26979   MisRate:31.66%    MPKI:0.09
PC:154ac     Total:258505      MisBP:27503   MisRate:10.64%    MPKI:0.09
PC:15a1e     Total:82339      MisBP:27807   MisRate:33.77%    MPKI:0.09
PC:155e6     Total:125509      MisBP:29538   MisRate:23.53%    MPKI:0.10
PC:28644     Total:191013      MisBP:29746   MisRate:15.57%    MPKI:0.10
PC:14fa8     Total:106289      MisBP:29870   MisRate:28.10%    MPKI:0.10
PC:287d4     Total:140554      MisBP:29980   MisRate:21.33%    MPKI:0.10
PC:192e0     Total:170396      MisBP:30660   MisRate:17.99%    MPKI:0.10
PC:19314     Total:197561      MisBP:31312   MisRate:15.85%    MPKI:0.10
PC:3ca34     Total:208677      MisBP:31350   MisRate:15.02%    MPKI:0.10
PC:15a16     Total:93086      MisBP:32022   MisRate:34.40%    MPKI:0.10
PC:157ba     Total:94438      MisBP:32288   MisRate:34.19%    MPKI:0.10
PC:1bfe8     Total:191702      MisBP:32419   MisRate:16.91%    MPKI:0.10
PC:18cde     Total:213494      MisBP:32572   MisRate:15.26%    MPKI:0.11
PC:18d4c     Total:143618      MisBP:32947   MisRate:22.94%    MPKI:0.11
PC:154a2     Total:149551      MisBP:33293   MisRate:22.26%    MPKI:0.11
PC:14f62     Total:138005      MisBP:34393   MisRate:24.92%    MPKI:0.11
PC:2ca90     Total:177651      MisBP:35206   MisRate:19.82%    MPKI:0.11
PC:14fb2     Total:434169      MisBP:35478   MisRate:8.17%    MPKI:0.11
PC:3ca0a     Total:256404      MisBP:35545   MisRate:13.86%    MPKI:0.11
PC:18d3e     Total:159536      MisBP:36731   MisRate:23.02%    MPKI:0.12
PC:1bfe2     Total:239755      MisBP:36887   MisRate:15.39%    MPKI:0.12
PC:3bf88     Total:108675      MisBP:36979   MisRate:34.03%    MPKI:0.12
PC:3c220     Total:436804      MisBP:38030   MisRate:8.71%    MPKI:0.12
PC:512b6     Total:406131      MisBP:38189   MisRate:9.40%    MPKI:0.12
PC:3c6e4     Total:152937      MisBP:39039   MisRate:25.53%    MPKI:0.13
PC:156e4     Total:287576      MisBP:40493   MisRate:14.08%    MPKI:0.13
PC:2d2a2     Total:239968      MisBP:40612   MisRate:16.92%    MPKI:0.13
PC:3c73a     Total:253517      MisBP:41286   MisRate:16.29%    MPKI:0.13
PC:18bb2     Total:299014      MisBP:42078   MisRate:14.07%    MPKI:0.14
PC:3c224     Total:451085      MisBP:43219   MisRate:9.58%    MPKI:0.14
PC:1bf88     Total:114002      MisBP:43851   MisRate:38.47%    MPKI:0.14
PC:18d34     Total:197032      MisBP:45096   MisRate:22.89%    MPKI:0.15
PC:24cc8     Total:140681      MisBP:46052   MisRate:32.74%    MPKI:0.15
PC:2cc9c     Total:549096      MisBP:46213   MisRate:8.42%    MPKI:0.15
PC:2cc8c     Total:465664      MisBP:47171   MisRate:10.13%    MPKI:0.15
PC:28602     Total:1985112      MisBP:47811   MisRate:2.41%    MPKI:0.15
PC:3ca32     Total:334216      MisBP:48392   MisRate:14.48%    MPKI:0.16
PC:156a4     Total:261913      MisBP:49089   MisRate:18.74%    MPKI:0.16
PC:84c10     Total:133188      MisBP:49542   MisRate:37.20%    MPKI:0.16
PC:51360     Total:1201820      MisBP:56035   MisRate:4.66%    MPKI:0.18
PC:512ac     Total:661392      MisBP:56240   MisRate:8.50%    MPKI:0.18
PC:1bfa8     Total:196405      MisBP:57801   MisRate:29.43%    MPKI:0.19
PC:1bfca     Total:231742      MisBP:65546   MisRate:28.28%    MPKI:0.21
PC:18bda     Total:520431      MisBP:66394   MisRate:12.76%    MPKI:0.21
PC:17694     Total:1684715      MisBP:66435   MisRate:3.94%    MPKI:0.21
PC:188ca     Total:336527      MisBP:74546   MisRate:22.15%    MPKI:0.24
PC:18bde     Total:616430      MisBP:87856   MisRate:14.25%    MPKI:0.28
PC:3bf7c     Total:682240      MisBP:99500   MisRate:14.58%    MPKI:0.32
PC:2866a     Total:1960672      MisBP:111192   MisRate:5.67%    MPKI:0.36
PC:1a934     Total:629137      MisBP:173423   MisRate:27.57%    MPKI:0.56
Totfetch:646742594  TotInsts:310000002  TotMis : inf%   MPKI : 21.99
=============finish sim!!!!!!=============
Done running SimPoint!
