Global frequency set at 1000000000000 ticks per second
 Register [printBranch()] ExitCallback !!!!!!! 
gem5 Simulator System.  https://www.gem5.org
gem5 is copyrighted software; use the --copyright option for details.

gem5 version 22.0.0.2
gem5 compiled Sep  7 2022 00:42:18
gem5 started Sep  7 2022 02:51:38
gem5 executing on a100, pid 2747806
command line: /data/zxf/gem5/gem5-prof/build/ARM/gem5.fast --outdir=/data/zxf/checkpoint/spec2006/445.gobmk/prof/gobmk_ckp_5 /data/zxf/gem5/gem5-prof/configs/example/se.py --cpu-type O3CPU --cpu-clock 1GHz --num-cpu 1 --caches --l2cache --l1i_size 32kB --l1d_size 32kB --l2_size 1MB --l1i_assoc 8 --l1d_assoc 8 --l2_assoc 16 --cacheline_size 64 --mem-type DDR3_2133_8x8 --mem-size 16GB --l1d-hwp-type=BOPPrefetcher --restore-simpoint-checkpoint -r 5 --checkpoint-dir /data/zxf/checkpoint/spec2006/445.gobmk/ckpt -i 13x13.tst -c gobmk_base.gcc41-64bit -o '--quiet --mode gtp'

info: Standard input is not a terminal, disabling listeners.
Resuming from /data/zxf/checkpoint/spec2006/445.gobmk/ckpt/cpt.simpoint_04_inst_38090000000_weight_0.066372_interval_300000000_warmup_10000000
Resuming from SimPoint #4, start_inst:38090000000, weight:0.066372, interval:300000000, warmup:10000000
Switch at curTick count:10000
Switched CPUS @ tick 25895108171000
[(<m5.objects.ArmCPU.ArmAtomicSimpleCPU object at 0x7f68f031dbb0>, <m5.objects.ArmCPU.ArmO3CPU object at 0x7f68f0336e20>)]
switching cpus



+++++++++++++++++++++++++zxf print simpoint+++++++++++++++++++++++++++
Warmed up! Dumping and resetting stats!


=============start sim!!!!!!=============
PC:26470     Total:16      MisBP:0   MisRate:0.00%    MPKI:0.00
PC:287b2     Total:14016      MisBP:0   MisRate:0.00%    MPKI:0.00
PC:3bf14     Total:1056      MisBP:0   MisRate:0.00%    MPKI:0.00
PC:276a0     Total:49      MisBP:0   MisRate:0.00%    MPKI:0.00
PC:3bf18     Total:717      MisBP:0   MisRate:0.00%    MPKI:0.00
PC:276a2     Total:8      MisBP:0   MisRate:0.00%    MPKI:0.00
PC:3bf1c     Total:99      MisBP:0   MisRate:0.00%    MPKI:0.00
PC:276a6     Total:8      MisBP:0   MisRate:0.00%    MPKI:0.00
PC:3bf1e     Total:42      MisBP:0   MisRate:0.00%    MPKI:0.00
PC:3bebe     Total:1317      MisBP:0   MisRate:0.00%    MPKI:0.00
PC:3bec2     Total:1963      MisBP:0   MisRate:0.00%    MPKI:0.00
PC:5218c     Total:2684      MisBP:0   MisRate:0.00%    MPKI:0.00
PC:79824     Total:3      MisBP:0   MisRate:0.00%    MPKI:0.00
PC:3bec4     Total:1963      MisBP:0   MisRate:0.00%    MPKI:0.00
PC:3bec8     Total:1963      MisBP:0   MisRate:0.00%    MPKI:0.00
PC:7982a     Total:11      MisBP:0   MisRate:0.00%    MPKI:0.00
PC:3beca     Total:1963      MisBP:0   MisRate:0.00%    MPKI:0.00
PC:3bece     Total:1963      MisBP:0   MisRate:0.00%    MPKI:0.00
PC:3bed2     Total:1963      MisBP:0   MisRate:0.00%    MPKI:0.00
PC:3bed6     Total:1374      MisBP:0   MisRate:0.00%    MPKI:0.00
PC:3bed8     Total:1372      MisBP:0   MisRate:0.00%    MPKI:0.00
PC:3d012     Total:2194      MisBP:0   MisRate:0.00%    MPKI:0.00
PC:3d8c18     Total:2      MisBP:0   MisRate:0.00%    MPKI:0.00
PC:286e4     Total:15758      MisBP:0   MisRate:0.00%    MPKI:0.00
PC:3cf5e     Total:136      MisBP:0   MisRate:0.00%    MPKI:0.00
PC:286e8     Total:15748      MisBP:0   MisRate:0.00%    MPKI:0.00
PC:3d006     Total:3831      MisBP:0   MisRate:0.00%    MPKI:0.00
PC:5216a     Total:3      MisBP:0   MisRate:0.00%    MPKI:0.00
PC:28790     Total:10970      MisBP:0   MisRate:0.00%    MPKI:0.00
PC:3d00a     Total:2213      MisBP:0   MisRate:0.00%    MPKI:0.00
PC:28794     Total:10892      MisBP:0   MisRate:0.00%    MPKI:0.00
PC:3d00e     Total:2213      MisBP:0   MisRate:0.00%    MPKI:0.00
PC:3bedc     Total:1372      MisBP:0   MisRate:0.00%    MPKI:0.00
PC:2879c     Total:7575      MisBP:0   MisRate:0.00%    MPKI:0.00
PC:3d018     Total:2349      MisBP:0   MisRate:0.00%    MPKI:0.00
PC:52180     Total:2      MisBP:0   MisRate:0.00%    MPKI:0.00
PC:287a6     Total:14047      MisBP:0   MisRate:0.00%    MPKI:0.00
PC:3d020     Total:380      MisBP:0   MisRate:0.00%    MPKI:0.00
PC:3d024     Total:378      MisBP:0   MisRate:0.00%    MPKI:0.00
PC:52188     Total:2      MisBP:0   MisRate:0.00%    MPKI:0.00
PC:287ae     Total:14025      MisBP:0   MisRate:0.00%    MPKI:0.00
PC:3d028     Total:378      MisBP:0   MisRate:0.00%    MPKI:0.00
PC:3bf08     Total:1283      MisBP:0   MisRate:0.00%    MPKI:0.00
PC:3befc     Total:1352      MisBP:0   MisRate:0.00%    MPKI:0.00
PC:27686     Total:2      MisBP:0   MisRate:0.00%    MPKI:0.00
PC:3befe     Total:1352      MisBP:0   MisRate:0.00%    MPKI:0.00
PC:27688     Total:2      MisBP:0   MisRate:0.00%    MPKI:0.00
PC:3bf00     Total:1297      MisBP:0   MisRate:0.00%    MPKI:0.00
PC:2768a     Total:2      MisBP:0   MisRate:0.00%    MPKI:0.00
PC:3bf02     Total:1297      MisBP:0   MisRate:0.00%    MPKI:0.00
PC:2768c     Total:2      MisBP:0   MisRate:0.00%    MPKI:0.00
PC:3bf04     Total:1297      MisBP:0   MisRate:0.00%    MPKI:0.00
PC:2768e     Total:2      MisBP:0   MisRate:0.00%    MPKI:0.00
PC:3befa     Total:1353      MisBP:0   MisRate:0.00%    MPKI:0.00
PC:27692     Total:2      MisBP:0   MisRate:0.00%    MPKI:0.00
PC:3bf0c     Total:1283      MisBP:0   MisRate:0.00%    MPKI:0.00
PC:3bf0e     Total:1283      MisBP:0   MisRate:0.00%    MPKI:0.00
PC:27698     Total:14      MisBP:0   MisRate:0.00%    MPKI:0.00
PC:3bf10     Total:6047      MisBP:0   MisRate:0.00%    MPKI:0.00
PC:3c3ba     Total:60      MisBP:0   MisRate:0.00%    MPKI:0.00
PC:3c3bc     Total:60      MisBP:0   MisRate:0.00%    MPKI:0.00
PC:3c3be     Total:60      MisBP:0   MisRate:0.00%    MPKI:0.00
PC:3c3c0     Total:476      MisBP:0   MisRate:0.00%    MPKI:0.00
PC:3beec     Total:1364      MisBP:0   MisRate:0.00%    MPKI:0.00
PC:3bede     Total:1372      MisBP:0   MisRate:0.00%    MPKI:0.00
PC:27668     Total:2      MisBP:0   MisRate:0.00%    MPKI:0.00
PC:3bee2     Total:1371      MisBP:0   MisRate:0.00%    MPKI:0.00
PC:2766c     Total:2      MisBP:0   MisRate:0.00%    MPKI:0.00
PC:3bee4     Total:1371      MisBP:0   MisRate:0.00%    MPKI:0.00
PC:3bee6     Total:1371      MisBP:0   MisRate:0.00%    MPKI:0.00
PC:27670     Total:2      MisBP:0   MisRate:0.00%    MPKI:0.00
PC:3bee8     Total:1368      MisBP:0   MisRate:0.00%    MPKI:0.00
PC:3beea     Total:1364      MisBP:0   MisRate:0.00%    MPKI:0.00
PC:27674     Total:2      MisBP:0   MisRate:0.00%    MPKI:0.00
PC:1b982     Total:2025      MisBP:0   MisRate:0.00%    MPKI:0.00
PC:27676     Total:2      MisBP:0   MisRate:0.00%    MPKI:0.00
PC:3bef0     Total:1364      MisBP:0   MisRate:0.00%    MPKI:0.00
PC:2767a     Total:2      MisBP:0   MisRate:0.00%    MPKI:0.00
PC:3bef2     Total:1364      MisBP:0   MisRate:0.00%    MPKI:0.00
PC:3bef4     Total:1364      MisBP:0   MisRate:0.00%    MPKI:0.00
PC:2767e     Total:2      MisBP:0   MisRate:0.00%    MPKI:0.00
PC:3bef6     Total:1364      MisBP:0   MisRate:0.00%    MPKI:0.00
PC:3bef8     Total:1364      MisBP:0   MisRate:0.00%    MPKI:0.00
PC:27682     Total:2      MisBP:0   MisRate:0.00%    MPKI:0.00
PC:3c0bc     Total:6243      MisBP:0   MisRate:0.00%    MPKI:0.00
PC:3c0ae     Total:8095      MisBP:0   MisRate:0.00%    MPKI:0.00
PC:27838     Total:1      MisBP:0   MisRate:0.00%    MPKI:0.00
PC:3c0b2     Total:6243      MisBP:0   MisRate:0.00%    MPKI:0.00
PC:2783c     Total:1      MisBP:0   MisRate:0.00%    MPKI:0.00
PC:3c0b4     Total:6243      MisBP:0   MisRate:0.00%    MPKI:0.00
PC:2783e     Total:1      MisBP:0   MisRate:0.00%    MPKI:0.00
PC:3c0b6     Total:6243      MisBP:0   MisRate:0.00%    MPKI:0.00
PC:3c0b8     Total:6243      MisBP:0   MisRate:0.00%    MPKI:0.00
PC:beffad34     Total:1      MisBP:0   MisRate:0.00%    MPKI:0.00
PC:3c0ba     Total:6243      MisBP:0   MisRate:0.00%    MPKI:0.00
PC:27836     Total:1      MisBP:0   MisRate:0.00%    MPKI:0.00
PC:beffad38     Total:1      MisBP:0   MisRate:0.00%    MPKI:0.00
PC:3c0be     Total:6243      MisBP:0   MisRate:0.00%    MPKI:0.00
PC:3cebc     Total:2894      MisBP:0   MisRate:0.00%    MPKI:0.00
PC:28646     Total:174346      MisBP:0   MisRate:0.00%    MPKI:0.00
PC:3cec0     Total:1885      MisBP:0   MisRate:0.00%    MPKI:0.00
PC:3d8b84     Total:1      MisBP:0   MisRate:0.00%    MPKI:0.00
PC:3ceca     Total:2931      MisBP:0   MisRate:0.00%    MPKI:0.00
PC:3d8b88     Total:1      MisBP:0   MisRate:0.00%    MPKI:0.00
PC:5202e     Total:2      MisBP:0   MisRate:0.00%    MPKI:0.00
PC:3bff6     Total:3175      MisBP:0   MisRate:0.00%    MPKI:0.00
PC:3bfde     Total:27022      MisBP:0   MisRate:0.00%    MPKI:0.00
PC:3bfe0     Total:3882      MisBP:0   MisRate:0.00%    MPKI:0.00
PC:2776a     Total:12      MisBP:0   MisRate:0.00%    MPKI:0.00
PC:3bfe4     Total:3882      MisBP:0   MisRate:0.00%    MPKI:0.00
PC:3bfe8     Total:3882      MisBP:0   MisRate:0.00%    MPKI:0.00
PC:3bfec     Total:3882      MisBP:0   MisRate:0.00%    MPKI:0.00
PC:3bfee     Total:3882      MisBP:0   MisRate:0.00%    MPKI:0.00
PC:27778     Total:12      MisBP:0   MisRate:0.00%    MPKI:0.00
PC:3bff2     Total:3175      MisBP:0   MisRate:0.00%    MPKI:0.00
PC:2777c     Total:12      MisBP:0   MisRate:0.00%    MPKI:0.00
PC:28654     Total:173699      MisBP:0   MisRate:0.00%    MPKI:0.00
PC:27780     Total:12      MisBP:0   MisRate:0.00%    MPKI:0.00
PC:3bff8     Total:3137      MisBP:0   MisRate:0.00%    MPKI:0.00
PC:27782     Total:12      MisBP:0   MisRate:0.00%    MPKI:0.00
PC:3bffa     Total:3137      MisBP:0   MisRate:0.00%    MPKI:0.00
PC:3c0a8     Total:39050      MisBP:0   MisRate:0.00%    MPKI:0.00
PC:27832     Total:1      MisBP:0   MisRate:0.00%    MPKI:0.00
PC:3c0aa     Total:39050      MisBP:0   MisRate:0.00%    MPKI:0.00
PC:27834     Total:1      MisBP:0   MisRate:0.00%    MPKI:0.00
PC:3c0ac     Total:8095      MisBP:0   MisRate:0.00%    MPKI:0.00
PC:286a8     Total:12283      MisBP:0   MisRate:0.00%    MPKI:0.00
PC:3cef6     Total:668      MisBP:0   MisRate:0.00%    MPKI:0.00
PC:1b91e     Total:3968      MisBP:0   MisRate:0.00%    MPKI:0.00
PC:3d8bb4     Total:3      MisBP:0   MisRate:0.00%    MPKI:0.00
PC:28680     Total:48      MisBP:0   MisRate:0.00%    MPKI:0.00
PC:3cefa     Total:610      MisBP:0   MisRate:0.00%    MPKI:0.00
PC:28684     Total:48      MisBP:0   MisRate:0.00%    MPKI:0.00
PC:3cf00     Total:403      MisBP:0   MisRate:0.00%    MPKI:0.00
PC:3cf10     Total:333      MisBP:0   MisRate:0.00%    MPKI:0.00
PC:3cf14     Total:332      MisBP:0   MisRate:0.00%    MPKI:0.00
PC:2869e     Total:12389      MisBP:0   MisRate:0.00%    MPKI:0.00
PC:3cef0     Total:2139      MisBP:0   MisRate:0.00%    MPKI:0.00
PC:3cf22     Total:498      MisBP:0   MisRate:0.00%    MPKI:0.00
PC:3d8be0     Total:2      MisBP:0   MisRate:0.00%    MPKI:0.00
PC:3cf28     Total:247      MisBP:0   MisRate:0.00%    MPKI:0.00
PC:3cf2c     Total:314      MisBP:0   MisRate:0.00%    MPKI:0.00
PC:3cf56     Total:136      MisBP:0   MisRate:0.00%    MPKI:0.00
PC:1b97e     Total:2182      MisBP:0   MisRate:0.00%    MPKI:0.00
PC:3d8c14     Total:1      MisBP:0   MisRate:0.00%    MPKI:0.00
PC:286e0     Total:15761      MisBP:0   MisRate:0.00%    MPKI:0.00
PC:3cf5a     Total:136      MisBP:0   MisRate:0.00%    MPKI:0.00
PC:3d8b9c     Total:2      MisBP:0   MisRate:0.00%    MPKI:0.00
PC:3cece     Total:2931      MisBP:0   MisRate:0.00%    MPKI:0.00
PC:3d8b8c     Total:1      MisBP:0   MisRate:0.00%    MPKI:0.00
PC:28658     Total:173692      MisBP:0   MisRate:0.00%    MPKI:0.00
PC:3ced4     Total:2931      MisBP:0   MisRate:0.00%    MPKI:0.00
PC:52038     Total:2      MisBP:0   MisRate:0.00%    MPKI:0.00
PC:2865e     Total:171346      MisBP:0   MisRate:0.00%    MPKI:0.00
PC:3ced8     Total:2874      MisBP:0   MisRate:0.00%    MPKI:0.00
PC:5203c     Total:2      MisBP:0   MisRate:0.00%    MPKI:0.00
PC:28662     Total:171013      MisBP:0   MisRate:0.00%    MPKI:0.00
PC:3cede     Total:2201      MisBP:0   MisRate:0.00%    MPKI:0.00
PC:3c3c4     Total:476      MisBP:0   MisRate:0.00%    MPKI:0.00
PC:28668     Total:170375      MisBP:0   MisRate:0.00%    MPKI:0.00
PC:3cee2     Total:2504      MisBP:0   MisRate:0.00%    MPKI:0.00
PC:3d8ba0     Total:3      MisBP:0   MisRate:0.00%    MPKI:0.00
PC:2866c     Total:12681      MisBP:0   MisRate:0.00%    MPKI:0.00
PC:3cee6     Total:3040      MisBP:0   MisRate:0.00%    MPKI:0.00
PC:3d8ba4     Total:2      MisBP:0   MisRate:0.00%    MPKI:0.00
PC:28670     Total:12680      MisBP:0   MisRate:0.00%    MPKI:0.00
PC:3ceea     Total:2139      MisBP:0   MisRate:0.00%    MPKI:0.00
PC:3d8ba8     Total:2      MisBP:0   MisRate:0.00%    MPKI:0.00
PC:1b3ec     Total:341      MisBP:0   MisRate:0.00%    MPKI:0.00
PC:2fc52     Total:38      MisBP:0   MisRate:0.00%    MPKI:0.00
PC:1b3de     Total:384      MisBP:0   MisRate:0.00%    MPKI:0.00
PC:1b3e0     Total:384      MisBP:0   MisRate:0.00%    MPKI:0.00
PC:2fc56     Total:38      MisBP:0   MisRate:0.00%    MPKI:0.00
PC:1b3e2     Total:384      MisBP:0   MisRate:0.00%    MPKI:0.00
PC:1b3e6     Total:384      MisBP:0   MisRate:0.00%    MPKI:0.00
PC:1b3e8     Total:384      MisBP:0   MisRate:0.00%    MPKI:0.00
PC:2fc5e     Total:38      MisBP:0   MisRate:0.00%    MPKI:0.00
PC:1b3ea     Total:341      MisBP:0   MisRate:0.00%    MPKI:0.00
PC:2fc60     Total:37      MisBP:0   MisRate:0.00%    MPKI:0.00
PC:1b3dc     Total:384      MisBP:0   MisRate:0.00%    MPKI:0.00
PC:1b3ee     Total:341      MisBP:0   MisRate:0.00%    MPKI:0.00
PC:2fc64     Total:37      MisBP:0   MisRate:0.00%    MPKI:0.00
PC:1b3f0     Total:341      MisBP:0   MisRate:0.00%    MPKI:0.00
PC:2fc66     Total:37      MisBP:0   MisRate:0.00%    MPKI:0.00
PC:1b3f4     Total:78      MisBP:0   MisRate:0.00%    MPKI:0.00
PC:2fc6a     Total:37      MisBP:0   MisRate:0.00%    MPKI:0.00
PC:1b3f8     Total:78      MisBP:0   MisRate:0.00%    MPKI:0.00
PC:2fc6e     Total:37      MisBP:0   MisRate:0.00%    MPKI:0.00
PC:1b3fa     Total:78      MisBP:0   MisRate:0.00%    MPKI:0.00
PC:16ede     Total:24178      MisBP:0   MisRate:0.00%    MPKI:0.00
PC:408ac     Total:605      MisBP:0   MisRate:0.00%    MPKI:0.00
PC:4119a     Total:1728      MisBP:0   MisRate:0.00%    MPKI:0.00
PC:16ed4     Total:24722      MisBP:0   MisRate:0.00%    MPKI:0.00
PC:177c2     Total:8      MisBP:0   MisRate:0.00%    MPKI:0.00
PC:16ed6     Total:24722      MisBP:0   MisRate:0.00%    MPKI:0.00
PC:408b0     Total:580      MisBP:0   MisRate:0.00%    MPKI:0.00
PC:16eda     Total:24721      MisBP:0   MisRate:0.00%    MPKI:0.00
PC:408b4     Total:577      MisBP:0   MisRate:0.00%    MPKI:0.00
PC:411a2     Total:1637      MisBP:0   MisRate:0.00%    MPKI:0.00
PC:177c8     Total:8      MisBP:0   MisRate:0.00%    MPKI:0.00
PC:2fc70     Total:37      MisBP:0   MisRate:0.00%    MPKI:0.00
PC:408b8     Total:250      MisBP:0   MisRate:0.00%    MPKI:0.00
PC:177cc     Total:8      MisBP:0   MisRate:0.00%    MPKI:0.00
PC:16ee0     Total:24178      MisBP:0   MisRate:0.00%    MPKI:0.00
PC:408ba     Total:123      MisBP:0   MisRate:0.00%    MPKI:0.00
PC:1b3d0     Total:401      MisBP:0   MisRate:0.00%    MPKI:0.00
PC:1b3d4     Total:3191      MisBP:0   MisRate:0.00%    MPKI:0.00
PC:2fc4a     Total:380      MisBP:0   MisRate:0.00%    MPKI:0.00
PC:1b3d8     Total:384      MisBP:0   MisRate:0.00%    MPKI:0.00
PC:2fc4e     Total:38      MisBP:0   MisRate:0.00%    MPKI:0.00
PC:16b20     Total:9325      MisBP:0   MisRate:0.00%    MPKI:0.00
PC:404ea     Total:9508      MisBP:0   MisRate:0.00%    MPKI:0.00
PC:16b12     Total:9111      MisBP:0   MisRate:0.00%    MPKI:0.00
PC:404ec     Total:9508      MisBP:0   MisRate:0.00%    MPKI:0.00
PC:16b14     Total:8953      MisBP:0   MisRate:0.00%    MPKI:0.00
PC:16b16     Total:8943      MisBP:0   MisRate:0.00%    MPKI:0.00
PC:404f0     Total:1419      MisBP:0   MisRate:0.00%    MPKI:0.00
PC:16b18     Total:9337      MisBP:0   MisRate:0.00%    MPKI:0.00
PC:404f6     Total:3985      MisBP:0   MisRate:0.00%    MPKI:0.00
PC:16b1e     Total:9325      MisBP:0   MisRate:0.00%    MPKI:0.00
PC:404f8     Total:3985      MisBP:0   MisRate:0.00%    MPKI:0.00
PC:16b10     Total:9071      MisBP:0   MisRate:0.00%    MPKI:0.00
PC:15992     Total:249198      MisBP:0   MisRate:0.00%    MPKI:0.00
PC:3f36c     Total:323      MisBP:0   MisRate:0.00%    MPKI:0.00
PC:15996     Total:249196      MisBP:0   MisRate:0.00%    MPKI:0.00
PC:3f370     Total:323      MisBP:0   MisRate:0.00%    MPKI:0.00
PC:159a0     Total:487253      MisBP:0   MisRate:0.00%    MPKI:0.00
PC:3f37a     Total:1      MisBP:0   MisRate:0.00%    MPKI:0.00
PC:3c3f2     Total:459      MisBP:0   MisRate:0.00%    MPKI:0.00
PC:3c3f4     Total:224      MisBP:0   MisRate:0.00%    MPKI:0.00
PC:3c3f8     Total:2204      MisBP:0   MisRate:0.00%    MPKI:0.00
PC:2fc74     Total:37      MisBP:0   MisRate:0.00%    MPKI:0.00
PC:1b436     Total:215      MisBP:0   MisRate:0.00%    MPKI:0.00
PC:2fcac     Total:74      MisBP:0   MisRate:0.00%    MPKI:0.00
PC:2fcb2     Total:74      MisBP:0   MisRate:0.00%    MPKI:0.00
PC:1b492     Total:266      MisBP:0   MisRate:0.00%    MPKI:0.00
PC:2fd08     Total:673      MisBP:0   MisRate:0.00%    MPKI:0.00
PC:1b494     Total:266      MisBP:0   MisRate:0.00%    MPKI:0.00
PC:2fd0a     Total:718      MisBP:0   MisRate:0.00%    MPKI:0.00
PC:1b496     Total:1596      MisBP:0   MisRate:0.00%    MPKI:0.00
PC:2fd0c     Total:718      MisBP:0   MisRate:0.00%    MPKI:0.00
PC:1b3fe     Total:40      MisBP:0   MisRate:0.00%    MPKI:0.00
PC:408a8     Total:576      MisBP:0   MisRate:0.00%    MPKI:0.00
PC:1b402     Total:40      MisBP:0   MisRate:0.00%    MPKI:0.00
PC:2fc78     Total:37      MisBP:0   MisRate:0.00%    MPKI:0.00
PC:1b406     Total:40      MisBP:0   MisRate:0.00%    MPKI:0.00
PC:2fc7c     Total:37      MisBP:0   MisRate:0.00%    MPKI:0.00
PC:1b40a     Total:40      MisBP:0   MisRate:0.00%    MPKI:0.00
PC:1b40e     Total:40      MisBP:0   MisRate:0.00%    MPKI:0.00
PC:2fc84     Total:32      MisBP:0   MisRate:0.00%    MPKI:0.00
PC:1b412     Total:40      MisBP:0   MisRate:0.00%    MPKI:0.00
PC:2fc88     Total:32      MisBP:0   MisRate:0.00%    MPKI:0.00
PC:3ca88     Total:369      MisBP:0   MisRate:0.00%    MPKI:0.00
PC:3cbe6     Total:261      MisBP:0   MisRate:0.00%    MPKI:0.00
PC:3cd40     Total:132      MisBP:0   MisRate:0.00%    MPKI:0.00
PC:3cd42     Total:132      MisBP:0   MisRate:0.00%    MPKI:0.00
PC:3cd46     Total:132      MisBP:0   MisRate:0.00%    MPKI:0.00
PC:3cbe8     Total:259      MisBP:0   MisRate:0.00%    MPKI:0.00
PC:3cbec     Total:259      MisBP:0   MisRate:0.00%    MPKI:0.00
PC:3cbf0     Total:248      MisBP:0   MisRate:0.00%    MPKI:0.00
PC:3cbf4     Total:246      MisBP:0   MisRate:0.00%    MPKI:0.00
PC:3ca80     Total:369      MisBP:0   MisRate:0.00%    MPKI:0.00
PC:3ca84     Total:369      MisBP:0   MisRate:0.00%    MPKI:0.00
PC:3cbe4     Total:261      MisBP:0   MisRate:0.00%    MPKI:0.00
PC:3ca8c     Total:369      MisBP:0   MisRate:0.00%    MPKI:0.00
PC:3ca90     Total:369      MisBP:0   MisRate:0.00%    MPKI:0.00
PC:3ca94     Total:369      MisBP:0   MisRate:0.00%    MPKI:0.00
PC:3ca98     Total:369      MisBP:0   MisRate:0.00%    MPKI:0.00
PC:3ca9c     Total:369      MisBP:0   MisRate:0.00%    MPKI:0.00
PC:3caa4     Total:367      MisBP:0   MisRate:0.00%    MPKI:0.00
PC:3caa8     Total:367      MisBP:0   MisRate:0.00%    MPKI:0.00
PC:3cab0     Total:367      MisBP:0   MisRate:0.00%    MPKI:0.00
PC:3cab4     Total:367      MisBP:0   MisRate:0.00%    MPKI:0.00
PC:3cbc0     Total:449      MisBP:0   MisRate:0.00%    MPKI:0.00
PC:3c3c8     Total:476      MisBP:0   MisRate:0.00%    MPKI:0.00
PC:3c3ca     Total:476      MisBP:0   MisRate:0.00%    MPKI:0.00
PC:3c3ce     Total:476      MisBP:0   MisRate:0.00%    MPKI:0.00
PC:3c3d2     Total:476      MisBP:0   MisRate:0.00%    MPKI:0.00
PC:3c3d6     Total:476      MisBP:0   MisRate:0.00%    MPKI:0.00
PC:3c3d8     Total:430      MisBP:0   MisRate:0.00%    MPKI:0.00
PC:3c3dc     Total:404      MisBP:0   MisRate:0.00%    MPKI:0.00
PC:3c3e0     Total:404      MisBP:0   MisRate:0.00%    MPKI:0.00
PC:3c3e2     Total:404      MisBP:0   MisRate:0.00%    MPKI:0.00
PC:3c3e6     Total:404      MisBP:0   MisRate:0.00%    MPKI:0.00
PC:3cab8     Total:367      MisBP:0   MisRate:0.00%    MPKI:0.00
PC:3cbc4     Total:191      MisBP:0   MisRate:0.00%    MPKI:0.00
PC:3cbc6     Total:4697      MisBP:0   MisRate:0.00%    MPKI:0.00
PC:3cbca     Total:2348      MisBP:0   MisRate:0.00%    MPKI:0.00
PC:3cbd0     Total:2643      MisBP:0   MisRate:0.00%    MPKI:0.00
PC:3cbd2     Total:2643      MisBP:0   MisRate:0.00%    MPKI:0.00
PC:3cbd6     Total:264      MisBP:0   MisRate:0.00%    MPKI:0.00
PC:3cbd8     Total:261      MisBP:0   MisRate:0.00%    MPKI:0.00
PC:3cbdc     Total:261      MisBP:0   MisRate:0.00%    MPKI:0.00
PC:3cbe0     Total:261      MisBP:0   MisRate:0.00%    MPKI:0.00
PC:3c0d6     Total:777      MisBP:0   MisRate:0.00%    MPKI:0.00
PC:3d0a2     Total:36      MisBP:0   MisRate:0.00%    MPKI:0.00
PC:3d0a6     Total:48      MisBP:0   MisRate:0.00%    MPKI:0.00
PC:3c0c0     Total:6143      MisBP:0   MisRate:0.00%    MPKI:0.00
PC:beffad3c     Total:1      MisBP:0   MisRate:0.00%    MPKI:0.00
PC:3c0c4     Total:6143      MisBP:0   MisRate:0.00%    MPKI:0.00
PC:3c0c6     Total:6143      MisBP:0   MisRate:0.00%    MPKI:0.00
PC:3c0c8     Total:6143      MisBP:0   MisRate:0.00%    MPKI:0.00
PC:3c0ce     Total:5930      MisBP:0   MisRate:0.00%    MPKI:0.00
PC:3c0d0     Total:5930      MisBP:0   MisRate:0.00%    MPKI:0.00
PC:3c0d2     Total:777      MisBP:0   MisRate:0.00%    MPKI:0.00
PC:3d09c     Total:36      MisBP:0   MisRate:0.00%    MPKI:0.00
PC:3c0d8     Total:777      MisBP:0   MisRate:0.00%    MPKI:0.00
PC:3c0da     Total:777      MisBP:0   MisRate:0.00%    MPKI:0.00
PC:3c0dc     Total:777      MisBP:0   MisRate:0.00%    MPKI:0.00
PC:3c0de     Total:777      MisBP:0   MisRate:0.00%    MPKI:0.00
PC:3c0e2     Total:777      MisBP:0   MisRate:0.00%    MPKI:0.00
PC:3c0e6     Total:777      MisBP:0   MisRate:0.00%    MPKI:0.00
PC:3c0ea     Total:776      MisBP:0   MisRate:0.00%    MPKI:0.00
PC:4089a     Total:1833      MisBP:0   MisRate:0.00%    MPKI:0.00
PC:408a4     Total:576      MisBP:0   MisRate:0.00%    MPKI:0.00
PC:3d076     Total:87      MisBP:0   MisRate:0.00%    MPKI:0.00
PC:3d044     Total:151      MisBP:0   MisRate:0.00%    MPKI:0.00
PC:3d048     Total:151      MisBP:0   MisRate:0.00%    MPKI:0.00
PC:287d2     Total:13113      MisBP:0   MisRate:0.00%    MPKI:0.00
PC:3d04c     Total:151      MisBP:0   MisRate:0.00%    MPKI:0.00
PC:3d05e     Total:93      MisBP:0   MisRate:0.00%    MPKI:0.00
PC:521c2     Total:2      MisBP:0   MisRate:0.00%    MPKI:0.00
PC:287e8     Total:13361      MisBP:0   MisRate:0.00%    MPKI:0.00
PC:3d062     Total:91      MisBP:0   MisRate:0.00%    MPKI:0.00
PC:3d068     Total:12      MisBP:0   MisRate:0.00%    MPKI:0.00
PC:27766     Total:12      MisBP:0   MisRate:0.00%    MPKI:0.00
PC:521da     Total:3      MisBP:0   MisRate:0.00%    MPKI:0.00
PC:28800     Total:120      MisBP:0   MisRate:0.00%    MPKI:0.00
PC:3d07a     Total:88      MisBP:0   MisRate:0.00%    MPKI:0.00
PC:521de     Total:14      MisBP:0   MisRate:0.00%    MPKI:0.00
PC:28804     Total:120      MisBP:0   MisRate:0.00%    MPKI:0.00
PC:3d07e     Total:86      MisBP:0   MisRate:0.00%    MPKI:0.00
PC:3d090     Total:3      MisBP:0   MisRate:0.00%    MPKI:0.00
PC:3d094     Total:36      MisBP:0   MisRate:0.00%    MPKI:0.00
PC:3d098     Total:36      MisBP:0   MisRate:0.00%    MPKI:0.00
PC:3b53e     Total:56      MisBP:0   MisRate:0.00%    MPKI:0.00
PC:274ba     Total:764      MisBP:0   MisRate:0.00%    MPKI:0.00
PC:3bd32     Total:39      MisBP:0   MisRate:0.00%    MPKI:0.00
PC:3bd38     Total:35      MisBP:0   MisRate:0.00%    MPKI:0.00
PC:274c2     Total:762      MisBP:0   MisRate:0.00%    MPKI:0.00
PC:3bd3c     Total:35      MisBP:0   MisRate:0.00%    MPKI:0.00
PC:274c6     Total:762      MisBP:0   MisRate:0.00%    MPKI:0.00
PC:3bd3e     Total:35      MisBP:0   MisRate:0.00%    MPKI:0.00
PC:3b536     Total:56      MisBP:0   MisRate:0.00%    MPKI:0.00
PC:3b538     Total:56      MisBP:0   MisRate:0.00%    MPKI:0.00
PC:3b53a     Total:56      MisBP:0   MisRate:0.00%    MPKI:0.00
PC:3bd30     Total:39      MisBP:0   MisRate:0.00%    MPKI:0.00
PC:3b540     Total:52      MisBP:0   MisRate:0.00%    MPKI:0.00
PC:3b544     Total:5      MisBP:0   MisRate:0.00%    MPKI:0.00
PC:3b548     Total:5      MisBP:0   MisRate:0.00%    MPKI:0.00
PC:3b54a     Total:5      MisBP:0   MisRate:0.00%    MPKI:0.00
PC:3b54e     Total:5      MisBP:0   MisRate:0.00%    MPKI:0.00
PC:3b550     Total:5      MisBP:0   MisRate:0.00%    MPKI:0.00
PC:3b552     Total:5      MisBP:0   MisRate:0.00%    MPKI:0.00
PC:3b556     Total:5      MisBP:0   MisRate:0.00%    MPKI:0.00
PC:3b558     Total:5      MisBP:0   MisRate:0.00%    MPKI:0.00
PC:3bd1e     Total:77      MisBP:0   MisRate:0.00%    MPKI:0.00
PC:3bcf2     Total:80      MisBP:0   MisRate:0.00%    MPKI:0.00
PC:3bcf6     Total:80      MisBP:0   MisRate:0.00%    MPKI:0.00
PC:27480     Total:2      MisBP:0   MisRate:0.00%    MPKI:0.00
PC:3bcfa     Total:80      MisBP:0   MisRate:0.00%    MPKI:0.00
PC:3bcfe     Total:11      MisBP:0   MisRate:0.00%    MPKI:0.00
PC:3bd16     Total:77      MisBP:0   MisRate:0.00%    MPKI:0.00
PC:3bd18     Total:77      MisBP:0   MisRate:0.00%    MPKI:0.00
PC:274a2     Total:4      MisBP:0   MisRate:0.00%    MPKI:0.00
PC:3bd1a     Total:77      MisBP:0   MisRate:0.00%    MPKI:0.00
PC:274a4     Total:4      MisBP:0   MisRate:0.00%    MPKI:0.00
PC:3b55a     Total:5      MisBP:0   MisRate:0.00%    MPKI:0.00
PC:274a8     Total:1532      MisBP:0   MisRate:0.00%    MPKI:0.00
PC:3bd20     Total:77      MisBP:0   MisRate:0.00%    MPKI:0.00
PC:3bd22     Total:76      MisBP:0   MisRate:0.00%    MPKI:0.00
PC:274ac     Total:766      MisBP:0   MisRate:0.00%    MPKI:0.00
PC:3bd26     Total:76      MisBP:0   MisRate:0.00%    MPKI:0.00
PC:3bd2a     Total:76      MisBP:0   MisRate:0.00%    MPKI:0.00
PC:3bd2c     Total:72      MisBP:0   MisRate:0.00%    MPKI:0.00
PC:274b6     Total:765      MisBP:0   MisRate:0.00%    MPKI:0.00
PC:3bd2e     Total:39      MisBP:0   MisRate:0.00%    MPKI:0.00
PC:61e1c     Total:1      MisBP:0   MisRate:0.00%    MPKI:0.00
PC:27492     Total:3      MisBP:0   MisRate:0.00%    MPKI:0.00
PC:3bd0a     Total:7      MisBP:0   MisRate:0.00%    MPKI:0.00
PC:3bd0c     Total:7      MisBP:0   MisRate:0.00%    MPKI:0.00
PC:27496     Total:4      MisBP:0   MisRate:0.00%    MPKI:0.00
PC:3bd0e     Total:7      MisBP:0   MisRate:0.00%    MPKI:0.00
PC:3bd12     Total:7      MisBP:0   MisRate:0.00%    MPKI:0.00
PC:38420     Total:20612      MisBP:0   MisRate:0.00%    MPKI:0.00
PC:61dfa     Total:1      MisBP:0   MisRate:0.00%    MPKI:0.00
PC:3842e     Total:30718      MisBP:0   MisRate:0.00%    MPKI:0.00
PC:61e08     Total:1      MisBP:0   MisRate:0.00%    MPKI:0.00
PC:3bd08     Total:7      MisBP:0   MisRate:0.00%    MPKI:0.00
PC:61e24     Total:1      MisBP:0   MisRate:0.00%    MPKI:0.00
PC:38454     Total:7618      MisBP:0   MisRate:0.00%    MPKI:0.00
PC:61e2e     Total:3      MisBP:0   MisRate:0.00%    MPKI:0.00
PC:61e32     Total:18      MisBP:0   MisRate:0.00%    MPKI:0.00
PC:3845c     Total:23241      MisBP:0   MisRate:0.00%    MPKI:0.00
PC:61e36     Total:1      MisBP:0   MisRate:0.00%    MPKI:0.00
PC:38462     Total:23241      MisBP:0   MisRate:0.00%    MPKI:0.00
PC:61e3c     Total:1      MisBP:0   MisRate:0.00%    MPKI:0.00
PC:38466     Total:23241      MisBP:0   MisRate:0.00%    MPKI:0.00
PC:3b57a     Total:54      MisBP:0   MisRate:0.00%    MPKI:0.00
PC:3b55c     Total:5      MisBP:0   MisRate:0.00%    MPKI:0.00
PC:3b560     Total:5      MisBP:0   MisRate:0.00%    MPKI:0.00
PC:3b566     Total:6      MisBP:0   MisRate:0.00%    MPKI:0.00
PC:3b568     Total:6      MisBP:0   MisRate:0.00%    MPKI:0.00
PC:3b56a     Total:54      MisBP:0   MisRate:0.00%    MPKI:0.00
PC:3b56c     Total:54      MisBP:0   MisRate:0.00%    MPKI:0.00
PC:3b56e     Total:54      MisBP:0   MisRate:0.00%    MPKI:0.00
PC:3b570     Total:54      MisBP:0   MisRate:0.00%    MPKI:0.00
PC:3b572     Total:54      MisBP:0   MisRate:0.00%    MPKI:0.00
PC:3b576     Total:54      MisBP:0   MisRate:0.00%    MPKI:0.00
PC:3b63a     Total:83      MisBP:0   MisRate:0.00%    MPKI:0.00
PC:3b57e     Total:51      MisBP:0   MisRate:0.00%    MPKI:0.00
PC:3b582     Total:51      MisBP:0   MisRate:0.00%    MPKI:0.00
PC:3bd00     Total:7      MisBP:0   MisRate:0.00%    MPKI:0.00
PC:50e64     Total:357      MisBP:0   MisRate:0.00%    MPKI:0.00
PC:2748a     Total:3      MisBP:0   MisRate:0.00%    MPKI:0.00
PC:3bd04     Total:7      MisBP:0   MisRate:0.00%    MPKI:0.00
PC:2748e     Total:3      MisBP:0   MisRate:0.00%    MPKI:0.00
PC:3bd06     Total:7      MisBP:0   MisRate:0.00%    MPKI:0.00
PC:27490     Total:3      MisBP:0   MisRate:0.00%    MPKI:0.00
PC:3eff8     Total:100      MisBP:0   MisRate:0.00%    MPKI:0.00
PC:3efa6     Total:53      MisBP:0   MisRate:0.00%    MPKI:0.00
PC:3efac     Total:53      MisBP:0   MisRate:0.00%    MPKI:0.00
PC:155d6     Total:169433      MisBP:0   MisRate:0.00%    MPKI:0.00
PC:3efb0     Total:62      MisBP:0   MisRate:0.00%    MPKI:0.00
PC:3efb8     Total:9      MisBP:0   MisRate:0.00%    MPKI:0.00
PC:1560e     Total:74537      MisBP:0   MisRate:0.00%    MPKI:0.00
PC:3efe8     Total:102      MisBP:0   MisRate:0.00%    MPKI:0.00
PC:3efec     Total:101      MisBP:0   MisRate:0.00%    MPKI:0.00
PC:15616     Total:74088      MisBP:0   MisRate:0.00%    MPKI:0.00
PC:3eff0     Total:101      MisBP:0   MisRate:0.00%    MPKI:0.00
PC:155cc     Total:169443      MisBP:0   MisRate:0.00%    MPKI:0.00
PC:3effc     Total:100      MisBP:0   MisRate:0.00%    MPKI:0.00
PC:3f006     Total:180      MisBP:0   MisRate:0.00%    MPKI:0.00
PC:3f00a     Total:90      MisBP:0   MisRate:0.00%    MPKI:0.00
PC:15638     Total:73946      MisBP:0   MisRate:0.00%    MPKI:0.00
PC:3f012     Total:90      MisBP:0   MisRate:0.00%    MPKI:0.00
PC:3f016     Total:90      MisBP:0   MisRate:0.00%    MPKI:0.00
PC:15640     Total:72361      MisBP:0   MisRate:0.00%    MPKI:0.00
PC:3f01a     Total:90      MisBP:0   MisRate:0.00%    MPKI:0.00
PC:15644     Total:72361      MisBP:0   MisRate:0.00%    MPKI:0.00
PC:3ef24     Total:85      MisBP:0   MisRate:0.00%    MPKI:0.00
PC:28962     Total:1729      MisBP:0   MisRate:0.00%    MPKI:0.00
PC:3d1e4     Total:663      MisBP:0   MisRate:0.00%    MPKI:0.00
PC:2896e     Total:1975      MisBP:0   MisRate:0.00%    MPKI:0.00
PC:3ef02     Total:78      MisBP:0   MisRate:0.00%    MPKI:0.00
PC:7c864     Total:67      MisBP:0   MisRate:0.00%    MPKI:0.00
PC:15532     Total:180231      MisBP:0   MisRate:0.00%    MPKI:0.00
PC:3ef0c     Total:78      MisBP:0   MisRate:0.00%    MPKI:0.00
PC:7c86e     Total:77      MisBP:0   MisRate:0.00%    MPKI:0.00
PC:3ef12     Total:78      MisBP:0   MisRate:0.00%    MPKI:0.00
PC:3ef1e     Total:154      MisBP:0   MisRate:0.00%    MPKI:0.00
PC:3f01e     Total:90      MisBP:0   MisRate:0.00%    MPKI:0.00
PC:1554e     Total:71970      MisBP:0   MisRate:0.00%    MPKI:0.00
PC:3ef28     Total:127      MisBP:0   MisRate:0.00%    MPKI:0.00
PC:3ef2e     Total:80      MisBP:0   MisRate:0.00%    MPKI:0.00
PC:155ae     Total:58613      MisBP:0   MisRate:0.00%    MPKI:0.00
PC:3ef88     Total:35      MisBP:0   MisRate:0.00%    MPKI:0.00
PC:155bc     Total:177215      MisBP:0   MisRate:0.00%    MPKI:0.00
PC:3ef96     Total:35      MisBP:0   MisRate:0.00%    MPKI:0.00
PC:3ef9e     Total:34      MisBP:0   MisRate:0.00%    MPKI:0.00
PC:3efa2     Total:34      MisBP:0   MisRate:0.00%    MPKI:0.00
PC:2a7f8     Total:2      MisBP:0   MisRate:0.00%    MPKI:0.00
PC:3efca     Total:58      MisBP:0   MisRate:0.00%    MPKI:0.00
PC:155fa     Total:75088      MisBP:0   MisRate:0.00%    MPKI:0.00
PC:3efd4     Total:72      MisBP:0   MisRate:0.00%    MPKI:0.00
PC:3efd8     Total:72      MisBP:0   MisRate:0.00%    MPKI:0.00
PC:15602     Total:74540      MisBP:0   MisRate:0.00%    MPKI:0.00
PC:3efdc     Total:72      MisBP:0   MisRate:0.00%    MPKI:0.00
PC:15608     Total:74537      MisBP:0   MisRate:0.00%    MPKI:0.00
PC:3efe2     Total:72      MisBP:0   MisRate:0.00%    MPKI:0.00
PC:15694     Total:314269      MisBP:0   MisRate:0.00%    MPKI:0.00
PC:3f06e     Total:28      MisBP:0   MisRate:0.00%    MPKI:0.00
PC:3efc6     Total:2      MisBP:0   MisRate:0.00%    MPKI:0.00
PC:15698     Total:313437      MisBP:0   MisRate:0.00%    MPKI:0.00
PC:3f072     Total:28      MisBP:0   MisRate:0.00%    MPKI:0.00
PC:2a7fc     Total:18      MisBP:0   MisRate:0.00%    MPKI:0.00
PC:3b626     Total:90      MisBP:0   MisRate:0.00%    MPKI:0.00
PC:3b628     Total:90      MisBP:0   MisRate:0.00%    MPKI:0.00
PC:3b62c     Total:90      MisBP:0   MisRate:0.00%    MPKI:0.00
PC:3b630     Total:83      MisBP:0   MisRate:0.00%    MPKI:0.00
PC:3b634     Total:83      MisBP:0   MisRate:0.00%    MPKI:0.00
PC:3b638     Total:83      MisBP:0   MisRate:0.00%    MPKI:0.00
PC:1566c     Total:71623      MisBP:0   MisRate:0.00%    MPKI:0.00
PC:3f026     Total:95      MisBP:0   MisRate:0.00%    MPKI:0.00
PC:3f02c     Total:95      MisBP:0   MisRate:0.00%    MPKI:0.00
PC:3f030     Total:72      MisBP:0   MisRate:0.00%    MPKI:0.00
PC:1565a     Total:71633      MisBP:0   MisRate:0.00%    MPKI:0.00
PC:3f034     Total:72      MisBP:0   MisRate:0.00%    MPKI:0.00
PC:15660     Total:71629      MisBP:0   MisRate:0.00%    MPKI:0.00
PC:3f03a     Total:72      MisBP:0   MisRate:0.00%    MPKI:0.00
PC:15668     Total:71623      MisBP:0   MisRate:0.00%    MPKI:0.00
PC:3f042     Total:23      MisBP:0   MisRate:0.00%    MPKI:0.00
PC:61e40     Total:1      MisBP:0   MisRate:0.00%    MPKI:0.00
PC:3f046     Total:23      MisBP:0   MisRate:0.00%    MPKI:0.00
PC:15676     Total:70423      MisBP:0   MisRate:0.00%    MPKI:0.00
PC:3f050     Total:1      MisBP:0   MisRate:0.00%    MPKI:0.00
PC:1567c     Total:70423      MisBP:0   MisRate:0.00%    MPKI:0.00
PC:3f056     Total:1      MisBP:0   MisRate:0.00%    MPKI:0.00
PC:15680     Total:69233      MisBP:0   MisRate:0.00%    MPKI:0.00
PC:3f05a     Total:1      MisBP:0   MisRate:0.00%    MPKI:0.00
PC:3efbc     Total:8      MisBP:0   MisRate:0.00%    MPKI:0.00
PC:155ec     Total:75626      MisBP:0   MisRate:0.00%    MPKI:0.00
PC:3cfd8     Total:15805      MisBP:0   MisRate:0.00%    MPKI:0.00
PC:5212a     Total:2      MisBP:0   MisRate:0.00%    MPKI:0.00
PC:28750     Total:8621      MisBP:0   MisRate:0.00%    MPKI:0.00
PC:3cfc8     Total:7833      MisBP:0   MisRate:0.00%    MPKI:0.00
PC:3cfca     Total:7833      MisBP:0   MisRate:0.00%    MPKI:0.00
PC:28754     Total:8619      MisBP:0   MisRate:0.00%    MPKI:0.00
PC:3cfce     Total:3988      MisBP:0   MisRate:0.00%    MPKI:0.00
PC:2875a     Total:8448      MisBP:0   MisRate:0.00%    MPKI:0.00
PC:3cfd2     Total:3864      MisBP:0   MisRate:0.00%    MPKI:0.00
PC:3cfd6     Total:3864      MisBP:0   MisRate:0.00%    MPKI:0.00
PC:28760     Total:8434      MisBP:0   MisRate:0.00%    MPKI:0.00
PC:3cfc4     Total:8342      MisBP:0   MisRate:0.00%    MPKI:0.00
PC:5213c     Total:2      MisBP:0   MisRate:0.00%    MPKI:0.00
PC:28762     Total:8431      MisBP:0   MisRate:0.00%    MPKI:0.00
PC:3cfdc     Total:15805      MisBP:0   MisRate:0.00%    MPKI:0.00
PC:52140     Total:2      MisBP:0   MisRate:0.00%    MPKI:0.00
PC:28766     Total:8419      MisBP:0   MisRate:0.00%    MPKI:0.00
PC:3cfde     Total:15796      MisBP:0   MisRate:0.00%    MPKI:0.00
PC:3cfe0     Total:15796      MisBP:0   MisRate:0.00%    MPKI:0.00
PC:3cfea     Total:15462      MisBP:0   MisRate:0.00%    MPKI:0.00
PC:3cffa     Total:4667      MisBP:0   MisRate:0.00%    MPKI:0.00
PC:3cfb4     Total:9302      MisBP:0   MisRate:0.00%    MPKI:0.00
PC:3beb2     Total:3075      MisBP:0   MisRate:0.00%    MPKI:0.00
PC:2763c     Total:5      MisBP:0   MisRate:0.00%    MPKI:0.00
PC:26460     Total:16      MisBP:0   MisRate:0.00%    MPKI:0.00
PC:79814     Total:2      MisBP:0   MisRate:0.00%    MPKI:0.00
PC:79816     Total:2      MisBP:0   MisRate:0.00%    MPKI:0.00
PC:3beb6     Total:2511      MisBP:0   MisRate:0.00%    MPKI:0.00
PC:26464     Total:16      MisBP:0   MisRate:0.00%    MPKI:0.00
PC:79818     Total:2      MisBP:0   MisRate:0.00%    MPKI:0.00
PC:7981a     Total:2      MisBP:0   MisRate:0.00%    MPKI:0.00
PC:3beba     Total:3101      MisBP:0   MisRate:0.00%    MPKI:0.00
PC:28784     Total:12323      MisBP:0   MisRate:0.00%    MPKI:0.00
PC:2873e     Total:9097      MisBP:0   MisRate:0.00%    MPKI:0.00
PC:3cfb8     Total:9302      MisBP:0   MisRate:0.00%    MPKI:0.00
PC:28742     Total:8678      MisBP:0   MisRate:0.00%    MPKI:0.00
PC:3cfbc     Total:9302      MisBP:0   MisRate:0.00%    MPKI:0.00
PC:28746     Total:8647      MisBP:0   MisRate:0.00%    MPKI:0.00
PC:3cfc0     Total:8342      MisBP:0   MisRate:0.00%    MPKI:0.00
PC:52124     Total:2      MisBP:0   MisRate:0.00%    MPKI:0.00
PC:2874a     Total:8627      MisBP:0   MisRate:0.00%    MPKI:0.00
PC:3cfc2     Total:8342      MisBP:0   MisRate:0.00%    MPKI:0.00
PC:3bfcc     Total:28167      MisBP:0   MisRate:0.00%    MPKI:0.00
PC:3bfb8     Total:57498      MisBP:0   MisRate:0.00%    MPKI:0.00
PC:27742     Total:3490      MisBP:0   MisRate:0.00%    MPKI:0.00
PC:3bfbc     Total:57498      MisBP:0   MisRate:0.00%    MPKI:0.00
PC:27746     Total:3490      MisBP:0   MisRate:0.00%    MPKI:0.00
PC:3bfc0     Total:53339      MisBP:0   MisRate:0.00%    MPKI:0.00
PC:2774a     Total:3490      MisBP:0   MisRate:0.00%    MPKI:0.00
PC:3bfc2     Total:53339      MisBP:0   MisRate:0.00%    MPKI:0.00
PC:2774e     Total:3490      MisBP:0   MisRate:0.00%    MPKI:0.00
PC:3bfc8     Total:28167      MisBP:0   MisRate:0.00%    MPKI:0.00
PC:27752     Total:3489      MisBP:0   MisRate:0.00%    MPKI:0.00
PC:2773e     Total:6980      MisBP:0   MisRate:0.00%    MPKI:0.00
PC:27756     Total:17      MisBP:0   MisRate:0.00%    MPKI:0.00
PC:3bfd0     Total:28167      MisBP:0   MisRate:0.00%    MPKI:0.00
PC:3bfd2     Total:28194      MisBP:0   MisRate:0.00%    MPKI:0.00
PC:2775c     Total:12      MisBP:0   MisRate:0.00%    MPKI:0.00
PC:3bfd4     Total:26952      MisBP:0   MisRate:0.00%    MPKI:0.00
PC:2775e     Total:12      MisBP:0   MisRate:0.00%    MPKI:0.00
PC:3bfd8     Total:67040      MisBP:0   MisRate:0.00%    MPKI:0.00
PC:27762     Total:12      MisBP:0   MisRate:0.00%    MPKI:0.00
PC:3bfdc     Total:27022      MisBP:0   MisRate:0.00%    MPKI:0.00
PC:2772e     Total:32      MisBP:0   MisRate:0.00%    MPKI:0.00
PC:3bf90     Total:22666      MisBP:0   MisRate:0.00%    MPKI:0.00
PC:2771a     Total:22      MisBP:0   MisRate:0.00%    MPKI:0.00
PC:3bf94     Total:22666      MisBP:0   MisRate:0.00%    MPKI:0.00
PC:3bf98     Total:22666      MisBP:0   MisRate:0.00%    MPKI:0.00
PC:3bf9c     Total:22666      MisBP:0   MisRate:0.00%    MPKI:0.00
PC:3bfa0     Total:22666      MisBP:0   MisRate:0.00%    MPKI:0.00
PC:2772a     Total:32      MisBP:0   MisRate:0.00%    MPKI:0.00
PC:3bfa2     Total:22665      MisBP:0   MisRate:0.00%    MPKI:0.00
PC:2772c     Total:32      MisBP:0   MisRate:0.00%    MPKI:0.00
PC:3bfa4     Total:22665      MisBP:0   MisRate:0.00%    MPKI:0.00
PC:2763a     Total:1      MisBP:0   MisRate:0.00%    MPKI:0.00
PC:3bfa6     Total:22665      MisBP:0   MisRate:0.00%    MPKI:0.00
PC:3bfa8     Total:22287      MisBP:0   MisRate:0.00%    MPKI:0.00
PC:3bfaa     Total:57498      MisBP:0   MisRate:0.00%    MPKI:0.00
PC:27734     Total:24      MisBP:0   MisRate:0.00%    MPKI:0.00
PC:3bfac     Total:57498      MisBP:0   MisRate:0.00%    MPKI:0.00
PC:27736     Total:24      MisBP:0   MisRate:0.00%    MPKI:0.00
PC:3bfb0     Total:57498      MisBP:0   MisRate:0.00%    MPKI:0.00
PC:2773a     Total:24      MisBP:0   MisRate:0.00%    MPKI:0.00
PC:3bfb4     Total:57498      MisBP:0   MisRate:0.00%    MPKI:0.00
PC:3e522     Total:1077      MisBP:0   MisRate:0.00%    MPKI:0.00
PC:1c3c4     Total:30635      MisBP:0   MisRate:0.00%    MPKI:0.00
PC:1c3c6     Total:30634      MisBP:0   MisRate:0.00%    MPKI:0.00
PC:1c3c8     Total:212065      MisBP:0   MisRate:0.00%    MPKI:0.00
PC:3b896     Total:5      MisBP:0   MisRate:0.00%    MPKI:0.00
PC:3b898     Total:5      MisBP:0   MisRate:0.00%    MPKI:0.00
PC:3b89a     Total:5      MisBP:0   MisRate:0.00%    MPKI:0.00
PC:3b89e     Total:5      MisBP:0   MisRate:0.00%    MPKI:0.00
PC:3e51a     Total:1232      MisBP:0   MisRate:0.00%    MPKI:0.00
PC:3e51e     Total:1077      MisBP:0   MisRate:0.00%    MPKI:0.00
PC:3e520     Total:1077      MisBP:0   MisRate:0.00%    MPKI:0.00
PC:1c3c2     Total:30635      MisBP:0   MisRate:0.00%    MPKI:0.00
PC:3e524     Total:1077      MisBP:0   MisRate:0.00%    MPKI:0.00
PC:3e52a     Total:966      MisBP:0   MisRate:0.00%    MPKI:0.00
PC:3e52c     Total:966      MisBP:0   MisRate:0.00%    MPKI:0.00
PC:3e52e     Total:966      MisBP:0   MisRate:0.00%    MPKI:0.00
PC:3e530     Total:962      MisBP:0   MisRate:0.00%    MPKI:0.00
PC:3e534     Total:539      MisBP:0   MisRate:0.00%    MPKI:0.00
PC:3e536     Total:539      MisBP:0   MisRate:0.00%    MPKI:0.00
PC:3e53c     Total:487      MisBP:0   MisRate:0.00%    MPKI:0.00
PC:3e53e     Total:406      MisBP:0   MisRate:0.00%    MPKI:0.00
PC:1ebfe     Total:156      MisBP:0   MisRate:0.00%    MPKI:0.00
PC:3847a     Total:16436      MisBP:0   MisRate:0.00%    MPKI:0.00
PC:61e54     Total:2      MisBP:0   MisRate:0.00%    MPKI:0.00
PC:1ebea     Total:200      MisBP:0   MisRate:0.00%    MPKI:0.00
PC:485c4     Total:3      MisBP:0   MisRate:0.00%    MPKI:0.00
PC:1ebee     Total:200      MisBP:0   MisRate:0.00%    MPKI:0.00
PC:485c8     Total:3      MisBP:0   MisRate:0.00%    MPKI:0.00
PC:1ebf2     Total:181      MisBP:0   MisRate:0.00%    MPKI:0.00
PC:485cc     Total:3      MisBP:0   MisRate:0.00%    MPKI:0.00
PC:1ebf6     Total:181      MisBP:0   MisRate:0.00%    MPKI:0.00
PC:485d0     Total:3      MisBP:0   MisRate:0.00%    MPKI:0.00
PC:3e542     Total:406      MisBP:0   MisRate:0.00%    MPKI:0.00
PC:485d8     Total:3      MisBP:0   MisRate:0.00%    MPKI:0.00
PC:1ec02     Total:156      MisBP:0   MisRate:0.00%    MPKI:0.00
PC:485dc     Total:3      MisBP:0   MisRate:0.00%    MPKI:0.00
PC:1ec0a     Total:156      MisBP:0   MisRate:0.00%    MPKI:0.00
PC:485e4     Total:3      MisBP:0   MisRate:0.00%    MPKI:0.00
PC:1ec12     Total:156      MisBP:0   MisRate:0.00%    MPKI:0.00
PC:485ec     Total:3      MisBP:0   MisRate:0.00%    MPKI:0.00
PC:485f2     Total:3      MisBP:0   MisRate:0.00%    MPKI:0.00
PC:1c3c0     Total:30636      MisBP:0   MisRate:0.00%    MPKI:0.00
PC:79808     Total:1      MisBP:0   MisRate:0.00%    MPKI:0.00
PC:27624     Total:4      MisBP:0   MisRate:0.00%    MPKI:0.00
PC:797fc     Total:1      MisBP:0   MisRate:0.00%    MPKI:0.00
PC:3be9e     Total:3402      MisBP:0   MisRate:0.00%    MPKI:0.00
PC:27628     Total:4      MisBP:0   MisRate:0.00%    MPKI:0.00
PC:2644c     Total:15      MisBP:0   MisRate:0.00%    MPKI:0.00
PC:79800     Total:1      MisBP:0   MisRate:0.00%    MPKI:0.00
PC:3bea2     Total:3402      MisBP:0   MisRate:0.00%    MPKI:0.00
PC:2762c     Total:3      MisBP:0   MisRate:0.00%    MPKI:0.00
PC:3bea6     Total:3402      MisBP:0   MisRate:0.00%    MPKI:0.00
PC:27630     Total:3      MisBP:0   MisRate:0.00%    MPKI:0.00
PC:3be9a     Total:3783      MisBP:0   MisRate:0.00%    MPKI:0.00
PC:3bea8     Total:3402      MisBP:0   MisRate:0.00%    MPKI:0.00
PC:27632     Total:3      MisBP:0   MisRate:0.00%    MPKI:0.00
PC:26456     Total:16      MisBP:0   MisRate:0.00%    MPKI:0.00
PC:7980a     Total:1      MisBP:0   MisRate:0.00%    MPKI:0.00
PC:3beaa     Total:3351      MisBP:0   MisRate:0.00%    MPKI:0.00
PC:7980c     Total:1      MisBP:0   MisRate:0.00%    MPKI:0.00
PC:27636     Total:1      MisBP:0   MisRate:0.00%    MPKI:0.00
PC:3beae     Total:3082      MisBP:0   MisRate:0.00%    MPKI:0.00
PC:79810     Total:1      MisBP:0   MisRate:0.00%    MPKI:0.00
PC:3e588     Total:1      MisBP:0   MisRate:0.00%    MPKI:0.00
PC:3e544     Total:406      MisBP:0   MisRate:0.00%    MPKI:0.00
PC:3e548     Total:406      MisBP:0   MisRate:0.00%    MPKI:0.00
PC:3e54a     Total:406      MisBP:0   MisRate:0.00%    MPKI:0.00
PC:3e54c     Total:406      MisBP:0   MisRate:0.00%    MPKI:0.00
PC:3e550     Total:406      MisBP:0   MisRate:0.00%    MPKI:0.00
PC:3e552     Total:406      MisBP:0   MisRate:0.00%    MPKI:0.00
PC:3e560     Total:3980      MisBP:0   MisRate:0.00%    MPKI:0.00
PC:3e564     Total:584      MisBP:0   MisRate:0.00%    MPKI:0.00
PC:3e578     Total:578      MisBP:0   MisRate:0.00%    MPKI:0.00
PC:3c3fc     Total:212      MisBP:0   MisRate:0.00%    MPKI:0.00
PC:3e594     Total:1      MisBP:0   MisRate:0.00%    MPKI:0.00
PC:3e5a2     Total:1      MisBP:0   MisRate:0.00%    MPKI:0.00
PC:3e5a6     Total:1      MisBP:0   MisRate:0.00%    MPKI:0.00
PC:3e5aa     Total:7      MisBP:0   MisRate:0.00%    MPKI:0.00
PC:3be96     Total:3783      MisBP:0   MisRate:0.00%    MPKI:0.00
PC:3be98     Total:3783      MisBP:0   MisRate:0.00%    MPKI:0.00
PC:27622     Total:4      MisBP:0   MisRate:0.00%    MPKI:0.00
PC:26446     Total:15      MisBP:0   MisRate:0.00%    MPKI:0.00
PC:797fa     Total:1      MisBP:0   MisRate:0.00%    MPKI:0.00
PC:4864a     Total:11      MisBP:0   MisRate:0.00%    MPKI:0.00
PC:47d4e     Total:377      MisBP:0   MisRate:0.00%    MPKI:0.00
PC:47d50     Total:377      MisBP:0   MisRate:0.00%    MPKI:0.00
PC:1ec64     Total:20      MisBP:0   MisRate:0.00%    MPKI:0.00
PC:47d52     Total:376      MisBP:0   MisRate:0.00%    MPKI:0.00
PC:47d56     Total:214      MisBP:0   MisRate:0.00%    MPKI:0.00
PC:1ec6a     Total:20      MisBP:0   MisRate:0.00%    MPKI:0.00
PC:47d58     Total:214      MisBP:0   MisRate:0.00%    MPKI:0.00
PC:47d5a     Total:214      MisBP:0   MisRate:0.00%    MPKI:0.00
PC:1ec6e     Total:20      MisBP:0   MisRate:0.00%    MPKI:0.00
PC:47d5c     Total:214      MisBP:0   MisRate:0.00%    MPKI:0.00
PC:1ec60     Total:2      MisBP:0   MisRate:0.00%    MPKI:0.00
PC:1ec70     Total:20      MisBP:0   MisRate:0.00%    MPKI:0.00
PC:47d5e     Total:214      MisBP:0   MisRate:0.00%    MPKI:0.00
PC:47d60     Total:102      MisBP:0   MisRate:0.00%    MPKI:0.00
PC:4864e     Total:11      MisBP:0   MisRate:0.00%    MPKI:0.00
PC:1ec74     Total:20      MisBP:0   MisRate:0.00%    MPKI:0.00
PC:47d62     Total:222      MisBP:0   MisRate:0.00%    MPKI:0.00
PC:1ec76     Total:20      MisBP:0   MisRate:0.00%    MPKI:0.00
PC:47d66     Total:119      MisBP:0   MisRate:0.00%    MPKI:0.00
PC:48654     Total:4      MisBP:0   MisRate:0.00%    MPKI:0.00
PC:99afc     Total:27      MisBP:0   MisRate:0.00%    MPKI:0.00
PC:99aea     Total:24      MisBP:0   MisRate:0.00%    MPKI:0.00
PC:47916     Total:17      MisBP:0   MisRate:0.00%    MPKI:0.00
PC:1cd60     Total:701      MisBP:0   MisRate:0.00%    MPKI:0.00
PC:4791a     Total:17      MisBP:0   MisRate:0.00%    MPKI:0.00
PC:99af2     Total:27      MisBP:0   MisRate:0.00%    MPKI:0.00
PC:4791e     Total:17      MisBP:0   MisRate:0.00%    MPKI:0.00
PC:47920     Total:17      MisBP:0   MisRate:0.00%    MPKI:0.00
PC:99af8     Total:27      MisBP:0   MisRate:0.00%    MPKI:0.00
PC:47924     Total:227      MisBP:0   MisRate:0.00%    MPKI:0.00
PC:1cd6e     Total:834      MisBP:0   MisRate:0.00%    MPKI:0.00
PC:1ec7a     Total:20      MisBP:0   MisRate:0.00%    MPKI:0.00
PC:47926     Total:227      MisBP:0   MisRate:0.00%    MPKI:0.00
PC:1cd72     Total:617      MisBP:0   MisRate:0.00%    MPKI:0.00
PC:99b00     Total:22      MisBP:0   MisRate:0.00%    MPKI:0.00
PC:47d44     Total:377      MisBP:0   MisRate:0.00%    MPKI:0.00
PC:1ec58     Total:2      MisBP:0   MisRate:0.00%    MPKI:0.00
PC:47d48     Total:377      MisBP:0   MisRate:0.00%    MPKI:0.00
PC:1ec5c     Total:2      MisBP:0   MisRate:0.00%    MPKI:0.00
PC:47d4a     Total:377      MisBP:0   MisRate:0.00%    MPKI:0.00
PC:47d4c     Total:377      MisBP:0   MisRate:0.00%    MPKI:0.00
PC:3da0c     Total:40      MisBP:0   MisRate:0.00%    MPKI:0.00
PC:288a0     Total:67      MisBP:0   MisRate:0.00%    MPKI:0.00
PC:3da06     Total:48      MisBP:0   MisRate:0.00%    MPKI:0.00
PC:29190     Total:158      MisBP:0   MisRate:0.00%    MPKI:0.00
PC:288a2     Total:67      MisBP:0   MisRate:0.00%    MPKI:0.00
PC:5227c     Total:1744      MisBP:0   MisRate:0.00%    MPKI:0.00
PC:3da08     Total:48      MisBP:0   MisRate:0.00%    MPKI:0.00
PC:29192     Total:157      MisBP:0   MisRate:0.00%    MPKI:0.00
PC:3da0a     Total:48      MisBP:0   MisRate:0.00%    MPKI:0.00
PC:29194     Total:157      MisBP:0   MisRate:0.00%    MPKI:0.00
PC:52280     Total:845      MisBP:0   MisRate:0.00%    MPKI:0.00
PC:2918e     Total:158      MisBP:0   MisRate:0.00%    MPKI:0.00
PC:29196     Total:156      MisBP:0   MisRate:0.00%    MPKI:0.00
PC:288a8     Total:66      MisBP:0   MisRate:0.00%    MPKI:0.00
PC:3da0e     Total:40      MisBP:0   MisRate:0.00%    MPKI:0.00
PC:288aa     Total:66      MisBP:0   MisRate:0.00%    MPKI:0.00
PC:52284     Total:71      MisBP:0   MisRate:0.00%    MPKI:0.00
PC:3da10     Total:40      MisBP:0   MisRate:0.00%    MPKI:0.00
PC:2919a     Total:156      MisBP:0   MisRate:0.00%    MPKI:0.00
PC:52286     Total:71      MisBP:0   MisRate:0.00%    MPKI:0.00
PC:3da12     Total:40      MisBP:0   MisRate:0.00%    MPKI:0.00
PC:1ec88     Total:19      MisBP:0   MisRate:0.00%    MPKI:0.00
PC:47d68     Total:118      MisBP:0   MisRate:0.00%    MPKI:0.00
PC:48656     Total:2      MisBP:0   MisRate:0.00%    MPKI:0.00
PC:1ec7c     Total:20      MisBP:0   MisRate:0.00%    MPKI:0.00
PC:47d6a     Total:115      MisBP:0   MisRate:0.00%    MPKI:0.00
PC:47d6c     Total:115      MisBP:0   MisRate:0.00%    MPKI:0.00
PC:4865a     Total:2      MisBP:0   MisRate:0.00%    MPKI:0.00
PC:1ec80     Total:19      MisBP:0   MisRate:0.00%    MPKI:0.00
PC:47d72     Total:68      MisBP:0   MisRate:0.00%    MPKI:0.00
PC:47d74     Total:68      MisBP:0   MisRate:0.00%    MPKI:0.00
PC:48662     Total:2      MisBP:0   MisRate:0.00%    MPKI:0.00
PC:1cd5c     Total:701      MisBP:0   MisRate:0.00%    MPKI:0.00
PC:47d76     Total:68      MisBP:0   MisRate:0.00%    MPKI:0.00
PC:47d78     Total:61      MisBP:0   MisRate:0.00%    MPKI:0.00
PC:48666     Total:13      MisBP:0   MisRate:0.00%    MPKI:0.00
PC:1ec8c     Total:19      MisBP:0   MisRate:0.00%    MPKI:0.00
PC:3da00     Total:101      MisBP:0   MisRate:0.00%    MPKI:0.00
PC:2918a     Total:54      MisBP:0   MisRate:0.00%    MPKI:0.00
PC:2889c     Total:67      MisBP:0   MisRate:0.00%    MPKI:0.00
PC:52276     Total:828      MisBP:0   MisRate:0.00%    MPKI:0.00
PC:3da04     Total:48      MisBP:0   MisRate:0.00%    MPKI:0.00
PC:29184     Total:54      MisBP:0   MisRate:0.00%    MPKI:0.00
PC:40b84     Total:2135      MisBP:0   MisRate:0.00%    MPKI:0.00
PC:40b86     Total:2135      MisBP:0   MisRate:0.00%    MPKI:0.00
PC:40b88     Total:2135      MisBP:0   MisRate:0.00%    MPKI:0.00
PC:40b8c     Total:1535      MisBP:0   MisRate:0.00%    MPKI:0.00
PC:3d9f6     Total:412      MisBP:0   MisRate:0.00%    MPKI:0.00
PC:29180     Total:54      MisBP:0   MisRate:0.00%    MPKI:0.00
PC:3d9f8     Total:412      MisBP:0   MisRate:0.00%    MPKI:0.00
PC:28894     Total:9497      MisBP:0   MisRate:0.00%    MPKI:0.00
PC:5226e     Total:13      MisBP:0   MisRate:0.00%    MPKI:0.00
PC:3d9fa     Total:412      MisBP:0   MisRate:0.00%    MPKI:0.00
PC:40b80     Total:1761      MisBP:0   MisRate:0.00%    MPKI:0.00
PC:3d9fe     Total:438      MisBP:0   MisRate:0.00%    MPKI:0.00
PC:29188     Total:54      MisBP:0   MisRate:0.00%    MPKI:0.00
PC:49ad8     Total:1350      MisBP:0   MisRate:0.00%    MPKI:0.00
PC:209ec     Total:5      MisBP:0   MisRate:0.00%    MPKI:0.00
PC:49ada     Total:270      MisBP:0   MisRate:0.00%    MPKI:0.00
PC:49adc     Total:270      MisBP:0   MisRate:0.00%    MPKI:0.00
PC:209f0     Total:5      MisBP:0   MisRate:0.00%    MPKI:0.00
PC:49ade     Total:270      MisBP:0   MisRate:0.00%    MPKI:0.00
PC:209f2     Total:5      MisBP:0   MisRate:0.00%    MPKI:0.00
PC:40b68     Total:1777      MisBP:0   MisRate:0.00%    MPKI:0.00
PC:40b4c     Total:3544      MisBP:0   MisRate:0.00%    MPKI:0.00
PC:40b50     Total:6749      MisBP:0   MisRate:0.00%    MPKI:0.00
PC:40b54     Total:6749      MisBP:0   MisRate:0.00%    MPKI:0.00
PC:40b58     Total:6749      MisBP:0   MisRate:0.00%    MPKI:0.00
PC:40b5a     Total:6625      MisBP:0   MisRate:0.00%    MPKI:0.00
PC:40b5c     Total:6625      MisBP:0   MisRate:0.00%    MPKI:0.00
PC:40b5e     Total:6625      MisBP:0   MisRate:0.00%    MPKI:0.00
PC:40b60     Total:6625      MisBP:0   MisRate:0.00%    MPKI:0.00
PC:40b62     Total:6625      MisBP:0   MisRate:0.00%    MPKI:0.00
PC:40b64     Total:6484      MisBP:0   MisRate:0.00%    MPKI:0.00
PC:49ae0     Total:267      MisBP:0   MisRate:0.00%    MPKI:0.00
PC:40b6a     Total:1755      MisBP:0   MisRate:0.00%    MPKI:0.00
PC:40b6c     Total:1755      MisBP:0   MisRate:0.00%    MPKI:0.00
PC:40b6e     Total:1755      MisBP:0   MisRate:0.00%    MPKI:0.00
PC:40b70     Total:1755      MisBP:0   MisRate:0.00%    MPKI:0.00
PC:40b74     Total:1755      MisBP:0   MisRate:0.00%    MPKI:0.00
PC:40b76     Total:1742      MisBP:0   MisRate:0.00%    MPKI:0.00
PC:40b78     Total:1742      MisBP:0   MisRate:0.00%    MPKI:0.00
PC:40b7c     Total:1907      MisBP:0   MisRate:0.00%    MPKI:0.00
PC:40b7e     Total:1904      MisBP:0   MisRate:0.00%    MPKI:0.00
PC:478f6     Total:270      MisBP:0   MisRate:0.00%    MPKI:0.00
PC:20a0a     Total:4      MisBP:0   MisRate:0.00%    MPKI:0.00
PC:49afa     Total:149      MisBP:0   MisRate:0.00%    MPKI:0.00
PC:20a0e     Total:4      MisBP:0   MisRate:0.00%    MPKI:0.00
PC:49afc     Total:583      MisBP:0   MisRate:0.00%    MPKI:0.00
PC:20a10     Total:4      MisBP:0   MisRate:0.00%    MPKI:0.00
PC:478ee     Total:271      MisBP:0   MisRate:0.00%    MPKI:0.00
PC:478f0     Total:262      MisBP:0   MisRate:0.00%    MPKI:0.00
PC:1cd3a     Total:402      MisBP:0   MisRate:0.00%    MPKI:0.00
PC:99ac8     Total:5      MisBP:0   MisRate:0.00%    MPKI:0.00
PC:478f2     Total:270      MisBP:0   MisRate:0.00%    MPKI:0.00
PC:49af6     Total:260      MisBP:0   MisRate:0.00%    MPKI:0.00
PC:478fa     Total:175      MisBP:0   MisRate:0.00%    MPKI:0.00
PC:1cd46     Total:346      MisBP:0   MisRate:0.00%    MPKI:0.00
PC:99ad4     Total:5      MisBP:0   MisRate:0.00%    MPKI:0.00
PC:478fe     Total:109      MisBP:0   MisRate:0.00%    MPKI:0.00
PC:47902     Total:109      MisBP:0   MisRate:0.00%    MPKI:0.00
PC:47908     Total:106      MisBP:0   MisRate:0.00%    MPKI:0.00
PC:99ae4     Total:24      MisBP:0   MisRate:0.00%    MPKI:0.00
PC:4790e     Total:17      MisBP:0   MisRate:0.00%    MPKI:0.00
PC:47912     Total:17      MisBP:0   MisRate:0.00%    MPKI:0.00
PC:209fe     Total:4      MisBP:0   MisRate:0.00%    MPKI:0.00
PC:49ae2     Total:267      MisBP:0   MisRate:0.00%    MPKI:0.00
PC:209f6     Total:6      MisBP:0   MisRate:0.00%    MPKI:0.00
PC:72bce     Total:1      MisBP:0   MisRate:0.00%    MPKI:0.00
PC:49ae4     Total:267      MisBP:0   MisRate:0.00%    MPKI:0.00
PC:209f8     Total:6      MisBP:0   MisRate:0.00%    MPKI:0.00
PC:49ae6     Total:267      MisBP:0   MisRate:0.00%    MPKI:0.00
PC:49ae8     Total:267      MisBP:0   MisRate:0.00%    MPKI:0.00
PC:209fc     Total:6      MisBP:0   MisRate:0.00%    MPKI:0.00
PC:72bd4     Total:266      MisBP:0   MisRate:0.00%    MPKI:0.00
PC:49aea     Total:267      MisBP:0   MisRate:0.00%    MPKI:0.00
PC:2919c     Total:156      MisBP:0   MisRate:0.00%    MPKI:0.00
PC:49aec     Total:267      MisBP:0   MisRate:0.00%    MPKI:0.00
PC:49aee     Total:267      MisBP:0   MisRate:0.00%    MPKI:0.00
PC:20a02     Total:4      MisBP:0   MisRate:0.00%    MPKI:0.00
PC:49af0     Total:260      MisBP:0   MisRate:0.00%    MPKI:0.00
PC:20a04     Total:4      MisBP:0   MisRate:0.00%    MPKI:0.00
PC:49af2     Total:260      MisBP:0   MisRate:0.00%    MPKI:0.00
PC:20a06     Total:4      MisBP:0   MisRate:0.00%    MPKI:0.00
PC:72bde     Total:266      MisBP:0   MisRate:0.00%    MPKI:0.00
PC:49af4     Total:260      MisBP:0   MisRate:0.00%    MPKI:0.00
PC:40ace     Total:26      MisBP:0   MisRate:0.00%    MPKI:0.00
PC:170e2     Total:1      MisBP:0   MisRate:0.00%    MPKI:0.00
PC:40abc     Total:218      MisBP:0   MisRate:0.00%    MPKI:0.00
PC:170e6     Total:1      MisBP:0   MisRate:0.00%    MPKI:0.00
PC:40ac0     Total:184      MisBP:0   MisRate:0.00%    MPKI:0.00
PC:170ea     Total:1      MisBP:0   MisRate:0.00%    MPKI:0.00
PC:40ac4     Total:25      MisBP:0   MisRate:0.00%    MPKI:0.00
PC:170ec     Total:3      MisBP:0   MisRate:0.00%    MPKI:0.00
PC:40ac6     Total:25      MisBP:0   MisRate:0.00%    MPKI:0.00
PC:40ac8     Total:25      MisBP:0   MisRate:0.00%    MPKI:0.00
PC:40aca     Total:25      MisBP:0   MisRate:0.00%    MPKI:0.00
PC:40aba     Total:225      MisBP:0   MisRate:0.00%    MPKI:0.00
PC:92a36     Total:11      MisBP:0   MisRate:0.00%    MPKI:0.00
PC:15ca8     Total:57019      MisBP:0   MisRate:0.00%    MPKI:0.00
PC:3f682     Total:205      MisBP:0   MisRate:0.00%    MPKI:0.00
PC:92a3e     Total:11      MisBP:0   MisRate:0.00%    MPKI:0.00
PC:15cb0     Total:36874      MisBP:0   MisRate:0.00%    MPKI:0.00
PC:3f68a     Total:205      MisBP:0   MisRate:0.00%    MPKI:0.00
PC:15cba     Total:23593      MisBP:0   MisRate:0.00%    MPKI:0.00
PC:3f694     Total:203      MisBP:0   MisRate:0.00%    MPKI:0.00
PC:3e628     Total:34      MisBP:0   MisRate:0.00%    MPKI:0.00
PC:170cc     Total:2663      MisBP:0   MisRate:0.00%    MPKI:0.00
PC:40a94     Total:57      MisBP:0   MisRate:0.00%    MPKI:0.00
PC:170bc     Total:3970      MisBP:0   MisRate:0.00%    MPKI:0.00
PC:40a96     Total:57      MisBP:0   MisRate:0.00%    MPKI:0.00
PC:170c0     Total:2663      MisBP:0   MisRate:0.00%    MPKI:0.00
PC:40a9a     Total:57      MisBP:0   MisRate:0.00%    MPKI:0.00
PC:40a9e     Total:57      MisBP:0   MisRate:0.00%    MPKI:0.00
PC:170c6     Total:2663      MisBP:0   MisRate:0.00%    MPKI:0.00
PC:40aa0     Total:57      MisBP:0   MisRate:0.00%    MPKI:0.00
PC:170ca     Total:2663      MisBP:0   MisRate:0.00%    MPKI:0.00
PC:40aa4     Total:57      MisBP:0   MisRate:0.00%    MPKI:0.00
PC:3e62c     Total:34      MisBP:0   MisRate:0.00%    MPKI:0.00
PC:40aa6     Total:57      MisBP:0   MisRate:0.00%    MPKI:0.00
PC:40aa8     Total:57      MisBP:0   MisRate:0.00%    MPKI:0.00
PC:170d0     Total:2663      MisBP:0   MisRate:0.00%    MPKI:0.00
PC:40aaa     Total:182      MisBP:0   MisRate:0.00%    MPKI:0.00
PC:40aac     Total:182      MisBP:0   MisRate:0.00%    MPKI:0.00
PC:40ab2     Total:450      MisBP:0   MisRate:0.00%    MPKI:0.00
PC:40ab6     Total:225      MisBP:0   MisRate:0.00%    MPKI:0.00
PC:170de     Total:1      MisBP:0   MisRate:0.00%    MPKI:0.00
PC:40ab8     Total:225      MisBP:0   MisRate:0.00%    MPKI:0.00
PC:29a14     Total:3      MisBP:0   MisRate:0.00%    MPKI:0.00
PC:3e27a     Total:30      MisBP:0   MisRate:0.00%    MPKI:0.00
PC:29a04     Total:3      MisBP:0   MisRate:0.00%    MPKI:0.00
PC:3e27e     Total:30      MisBP:0   MisRate:0.00%    MPKI:0.00
PC:29a08     Total:3      MisBP:0   MisRate:0.00%    MPKI:0.00
PC:3e280     Total:30      MisBP:0   MisRate:0.00%    MPKI:0.00
PC:3e282     Total:30      MisBP:0   MisRate:0.00%    MPKI:0.00
PC:29a0c     Total:3      MisBP:0   MisRate:0.00%    MPKI:0.00
PC:3e286     Total:30      MisBP:0   MisRate:0.00%    MPKI:0.00
PC:29a10     Total:3      MisBP:0   MisRate:0.00%    MPKI:0.00
PC:3e28a     Total:30      MisBP:0   MisRate:0.00%    MPKI:0.00
PC:29a00     Total:3      MisBP:0   MisRate:0.00%    MPKI:0.00
PC:3e28c     Total:30      MisBP:0   MisRate:0.00%    MPKI:0.00
PC:3e290     Total:30      MisBP:0   MisRate:0.00%    MPKI:0.00
PC:29a1a     Total:3      MisBP:0   MisRate:0.00%    MPKI:0.00
PC:3e292     Total:30      MisBP:0   MisRate:0.00%    MPKI:0.00
PC:29a1c     Total:3      MisBP:0   MisRate:0.00%    MPKI:0.00
PC:3e294     Total:30      MisBP:0   MisRate:0.00%    MPKI:0.00
PC:3e296     Total:30      MisBP:0   MisRate:0.00%    MPKI:0.00
PC:29a20     Total:3      MisBP:0   MisRate:0.00%    MPKI:0.00
PC:3e298     Total:242      MisBP:0   MisRate:0.00%    MPKI:0.00
PC:3e22e     Total:7      MisBP:0   MisRate:0.00%    MPKI:0.00
PC:3e632     Total:74      MisBP:0   MisRate:0.00%    MPKI:0.00
PC:3e636     Total:31      MisBP:0   MisRate:0.00%    MPKI:0.00
PC:3e216     Total:44      MisBP:0   MisRate:0.00%    MPKI:0.00
PC:3e218     Total:44      MisBP:0   MisRate:0.00%    MPKI:0.00
PC:3e21a     Total:44      MisBP:0   MisRate:0.00%    MPKI:0.00
PC:3e21e     Total:44      MisBP:0   MisRate:0.00%    MPKI:0.00
PC:3e220     Total:44      MisBP:0   MisRate:0.00%    MPKI:0.00
PC:3e224     Total:44      MisBP:0   MisRate:0.00%    MPKI:0.00
PC:3e226     Total:44      MisBP:0   MisRate:0.00%    MPKI:0.00
PC:3e22a     Total:32      MisBP:0   MisRate:0.00%    MPKI:0.00
PC:40a3e     Total:40      MisBP:0   MisRate:0.00%    MPKI:0.00
PC:3e232     Total:7      MisBP:0   MisRate:0.00%    MPKI:0.00
PC:3e236     Total:7      MisBP:0   MisRate:0.00%    MPKI:0.00
PC:3e23a     Total:7      MisBP:0   MisRate:0.00%    MPKI:0.00
PC:3e26a     Total:30      MisBP:0   MisRate:0.00%    MPKI:0.00
PC:3e26e     Total:30      MisBP:0   MisRate:0.00%    MPKI:0.00
PC:299f8     Total:24      MisBP:0   MisRate:0.00%    MPKI:0.00
PC:3e272     Total:30      MisBP:0   MisRate:0.00%    MPKI:0.00
PC:299fc     Total:3      MisBP:0   MisRate:0.00%    MPKI:0.00
PC:3e276     Total:30      MisBP:0   MisRate:0.00%    MPKI:0.00
PC:3da3c     Total:9      MisBP:0   MisRate:0.00%    MPKI:0.00
PC:288ca     Total:4117      MisBP:0   MisRate:0.00%    MPKI:0.00
PC:522a4     Total:216      MisBP:0   MisRate:0.00%    MPKI:0.00
PC:3da34     Total:11      MisBP:0   MisRate:0.00%    MPKI:0.00
PC:288d0     Total:60      MisBP:0   MisRate:0.00%    MPKI:0.00
PC:522aa     Total:221      MisBP:0   MisRate:0.00%    MPKI:0.00
PC:3da36     Total:9      MisBP:0   MisRate:0.00%    MPKI:0.00
PC:288d2     Total:60      MisBP:0   MisRate:0.00%    MPKI:0.00
PC:3da3a     Total:9      MisBP:0   MisRate:0.00%    MPKI:0.00
PC:288d6     Total:60      MisBP:0   MisRate:0.00%    MPKI:0.00
PC:522b0     Total:54      MisBP:0   MisRate:0.00%    MPKI:0.00
PC:3da2e     Total:11      MisBP:0   MisRate:0.00%    MPKI:0.00
PC:3da3e     Total:9      MisBP:0   MisRate:0.00%    MPKI:0.00
PC:288da     Total:60      MisBP:0   MisRate:0.00%    MPKI:0.00
PC:40a00     Total:48      MisBP:0   MisRate:0.00%    MPKI:0.00
PC:40a04     Total:72      MisBP:0   MisRate:0.00%    MPKI:0.00
PC:40a06     Total:72      MisBP:0   MisRate:0.00%    MPKI:0.00
PC:1702e     Total:975      MisBP:0   MisRate:0.00%    MPKI:0.00
PC:40a08     Total:72      MisBP:0   MisRate:0.00%    MPKI:0.00
PC:17032     Total:6511      MisBP:0   MisRate:0.00%    MPKI:0.00
PC:40a0c     Total:72      MisBP:0   MisRate:0.00%    MPKI:0.00
PC:3da1c     Total:64      MisBP:0   MisRate:0.00%    MPKI:0.00
PC:288ae     Total:15507      MisBP:0   MisRate:0.00%    MPKI:0.00
PC:52288     Total:71      MisBP:0   MisRate:0.00%    MPKI:0.00
PC:3da14     Total:40      MisBP:0   MisRate:0.00%    MPKI:0.00
PC:2919e     Total:156      MisBP:0   MisRate:0.00%    MPKI:0.00
PC:288b0     Total:15514      MisBP:0   MisRate:0.00%    MPKI:0.00
PC:3da16     Total:40      MisBP:0   MisRate:0.00%    MPKI:0.00
PC:291a0     Total:154      MisBP:0   MisRate:0.00%    MPKI:0.00
PC:288b2     Total:15512      MisBP:0   MisRate:0.00%    MPKI:0.00
PC:5228c     Total:66      MisBP:0   MisRate:0.00%    MPKI:0.00
PC:3da18     Total:128      MisBP:0   MisRate:0.00%    MPKI:0.00
PC:17036     Total:6520      MisBP:0   MisRate:0.00%    MPKI:0.00
PC:3da24     Total:37      MisBP:0   MisRate:0.00%    MPKI:0.00
PC:288c0     Total:2111      MisBP:0   MisRate:0.00%    MPKI:0.00
PC:5229a     Total:256      MisBP:0   MisRate:0.00%    MPKI:0.00
PC:3da26     Total:37      MisBP:0   MisRate:0.00%    MPKI:0.00
PC:3da28     Total:37      MisBP:0   MisRate:0.00%    MPKI:0.00
PC:5229e     Total:256      MisBP:0   MisRate:0.00%    MPKI:0.00
PC:3da2a     Total:36      MisBP:0   MisRate:0.00%    MPKI:0.00
PC:288c6     Total:4119      MisBP:0   MisRate:0.00%    MPKI:0.00
PC:522a0     Total:256      MisBP:0   MisRate:0.00%    MPKI:0.00
PC:17056     Total:2086      MisBP:0   MisRate:0.00%    MPKI:0.00
PC:1a814     Total:22      MisBP:0   MisRate:0.00%    MPKI:0.00
PC:1a818     Total:22      MisBP:0   MisRate:0.00%    MPKI:0.00
PC:1a81c     Total:22      MisBP:0   MisRate:0.00%    MPKI:0.00
PC:1a81e     Total:21      MisBP:0   MisRate:0.00%    MPKI:0.00
PC:1a820     Total:21      MisBP:0   MisRate:0.00%    MPKI:0.00
PC:1a824     Total:21      MisBP:0   MisRate:0.00%    MPKI:0.00
PC:1a826     Total:21      MisBP:0   MisRate:0.00%    MPKI:0.00
PC:1a828     Total:21      MisBP:0   MisRate:0.00%    MPKI:0.00
PC:1a82a     Total:21      MisBP:0   MisRate:0.00%    MPKI:0.00
PC:40a2c     Total:681      MisBP:0   MisRate:0.00%    MPKI:0.00
PC:1a810     Total:22      MisBP:0   MisRate:0.00%    MPKI:0.00
PC:40a30     Total:340      MisBP:0   MisRate:0.00%    MPKI:0.00
PC:40a32     Total:340      MisBP:0   MisRate:0.00%    MPKI:0.00
PC:1705a     Total:8910      MisBP:0   MisRate:0.00%    MPKI:0.00
PC:40a34     Total:295      MisBP:0   MisRate:0.00%    MPKI:0.00
PC:1705e     Total:9003      MisBP:0   MisRate:0.00%    MPKI:0.00
PC:40a38     Total:301      MisBP:0   MisRate:0.00%    MPKI:0.00
PC:17060     Total:9003      MisBP:0   MisRate:0.00%    MPKI:0.00
PC:40a3a     Total:301      MisBP:0   MisRate:0.00%    MPKI:0.00
PC:17064     Total:9003      MisBP:0   MisRate:0.00%    MPKI:0.00
PC:40a20     Total:74      MisBP:0   MisRate:0.00%    MPKI:0.00
PC:40a10     Total:72      MisBP:0   MisRate:0.00%    MPKI:0.00
PC:40a14     Total:72      MisBP:0   MisRate:0.00%    MPKI:0.00
PC:1703c     Total:6459      MisBP:0   MisRate:0.00%    MPKI:0.00
PC:40a16     Total:72      MisBP:0   MisRate:0.00%    MPKI:0.00
PC:40a18     Total:72      MisBP:0   MisRate:0.00%    MPKI:0.00
PC:17042     Total:1078      MisBP:0   MisRate:0.00%    MPKI:0.00
PC:40a1c     Total:68      MisBP:0   MisRate:0.00%    MPKI:0.00
PC:40a1e     Total:74      MisBP:0   MisRate:0.00%    MPKI:0.00
PC:17046     Total:4058      MisBP:0   MisRate:0.00%    MPKI:0.00
PC:40b48     Total:3544      MisBP:0   MisRate:0.00%    MPKI:0.00
PC:40a22     Total:276      MisBP:0   MisRate:0.00%    MPKI:0.00
PC:1704c     Total:4075      MisBP:0   MisRate:0.00%    MPKI:0.00
PC:40a26     Total:276      MisBP:0   MisRate:0.00%    MPKI:0.00
PC:40a28     Total:276      MisBP:0   MisRate:0.00%    MPKI:0.00
PC:17050     Total:4075      MisBP:0   MisRate:0.00%    MPKI:0.00
PC:1a800     Total:22      MisBP:0   MisRate:0.00%    MPKI:0.00
PC:1a804     Total:22      MisBP:0   MisRate:0.00%    MPKI:0.00
PC:1a808     Total:22      MisBP:0   MisRate:0.00%    MPKI:0.00
PC:1a80c     Total:22      MisBP:0   MisRate:0.00%    MPKI:0.00
PC:277f0     Total:489      MisBP:0   MisRate:0.00%    MPKI:0.00
PC:3c058     Total:487      MisBP:0   MisRate:0.00%    MPKI:0.00
PC:3c05a     Total:487      MisBP:0   MisRate:0.00%    MPKI:0.00
PC:277e4     Total:310      MisBP:0   MisRate:0.00%    MPKI:0.00
PC:3c05c     Total:487      MisBP:0   MisRate:0.00%    MPKI:0.00
PC:3c05e     Total:486      MisBP:0   MisRate:0.00%    MPKI:0.00
PC:277e8     Total:494      MisBP:0   MisRate:0.00%    MPKI:0.00
PC:3c060     Total:486      MisBP:0   MisRate:0.00%    MPKI:0.00
PC:277ec     Total:494      MisBP:0   MisRate:0.00%    MPKI:0.00
PC:3c064     Total:485      MisBP:0   MisRate:0.00%    MPKI:0.00
PC:3c066     Total:494      MisBP:0   MisRate:0.00%    MPKI:0.00
PC:3c056     Total:492      MisBP:0   MisRate:0.00%    MPKI:0.00
PC:3c06a     Total:491      MisBP:0   MisRate:0.00%    MPKI:0.00
PC:3c06c     Total:491      MisBP:0   MisRate:0.00%    MPKI:0.00
PC:277f6     Total:9      MisBP:0   MisRate:0.00%    MPKI:0.00
PC:3c06e     Total:491      MisBP:0   MisRate:0.00%    MPKI:0.00
PC:277f8     Total:9      MisBP:0   MisRate:0.00%    MPKI:0.00
PC:3c072     Total:491      MisBP:0   MisRate:0.00%    MPKI:0.00
PC:277fc     Total:1542      MisBP:0   MisRate:0.00%    MPKI:0.00
PC:3c074     Total:491      MisBP:0   MisRate:0.00%    MPKI:0.00
PC:3c076     Total:491      MisBP:0   MisRate:0.00%    MPKI:0.00
PC:277cc     Total:1001      MisBP:0   MisRate:0.00%    MPKI:0.00
PC:277ba     Total:535      MisBP:0   MisRate:0.00%    MPKI:0.00
PC:3c032     Total:932      MisBP:0   MisRate:0.00%    MPKI:0.00
PC:3c034     Total:932      MisBP:0   MisRate:0.00%    MPKI:0.00
PC:277be     Total:525      MisBP:0   MisRate:0.00%    MPKI:0.00
PC:3c036     Total:718      MisBP:0   MisRate:0.00%    MPKI:0.00
PC:3c038     Total:688      MisBP:0   MisRate:0.00%    MPKI:0.00
PC:277c2     Total:525      MisBP:0   MisRate:0.00%    MPKI:0.00
PC:3c03c     Total:688      MisBP:0   MisRate:0.00%    MPKI:0.00
PC:3c040     Total:503      MisBP:0   MisRate:0.00%    MPKI:0.00
PC:3c042     Total:503      MisBP:0   MisRate:0.00%    MPKI:0.00
PC:27800     Total:767      MisBP:0   MisRate:0.00%    MPKI:0.00
PC:3c046     Total:503      MisBP:0   MisRate:0.00%    MPKI:0.00
PC:277d0     Total:1001      MisBP:0   MisRate:0.00%    MPKI:0.00
PC:3c04a     Total:512      MisBP:0   MisRate:0.00%    MPKI:0.00
PC:277d4     Total:565      MisBP:0   MisRate:0.00%    MPKI:0.00
PC:3c04e     Total:512      MisBP:0   MisRate:0.00%    MPKI:0.00
PC:277d8     Total:520      MisBP:0   MisRate:0.00%    MPKI:0.00
PC:3c052     Total:512      MisBP:0   MisRate:0.00%    MPKI:0.00
PC:277dc     Total:520      MisBP:0   MisRate:0.00%    MPKI:0.00
PC:277de     Total:520      MisBP:0   MisRate:0.00%    MPKI:0.00
PC:16c0c     Total:22157      MisBP:0   MisRate:0.00%    MPKI:0.00
PC:27824     Total:193      MisBP:0   MisRate:0.00%    MPKI:0.00
PC:3c09c     Total:966      MisBP:0   MisRate:0.00%    MPKI:0.00
PC:3c0a0     Total:966      MisBP:0   MisRate:0.00%    MPKI:0.00
PC:3c0a4     Total:966      MisBP:0   MisRate:0.00%    MPKI:0.00
PC:2782e     Total:1      MisBP:0   MisRate:0.00%    MPKI:0.00
PC:27830     Total:1      MisBP:0   MisRate:0.00%    MPKI:0.00
PC:3c080     Total:1037      MisBP:0   MisRate:0.00%    MPKI:0.00
PC:3c082     Total:1037      MisBP:0   MisRate:0.00%    MPKI:0.00
PC:2780c     Total:767      MisBP:0   MisRate:0.00%    MPKI:0.00
PC:405e4     Total:227      MisBP:0   MisRate:0.00%    MPKI:0.00
PC:3c09a     Total:966      MisBP:0   MisRate:0.00%    MPKI:0.00
PC:405e6     Total:227      MisBP:0   MisRate:0.00%    MPKI:0.00
PC:405e8     Total:227      MisBP:0   MisRate:0.00%    MPKI:0.00
PC:405ec     Total:227      MisBP:0   MisRate:0.00%    MPKI:0.00
PC:16c14     Total:22157      MisBP:0   MisRate:0.00%    MPKI:0.00
PC:405ee     Total:227      MisBP:0   MisRate:0.00%    MPKI:0.00
PC:405f0     Total:227      MisBP:0   MisRate:0.00%    MPKI:0.00
PC:405f4     Total:1      MisBP:0   MisRate:0.00%    MPKI:0.00
PC:16c1c     Total:5798      MisBP:0   MisRate:0.00%    MPKI:0.00
PC:405f6     Total:1      MisBP:0   MisRate:0.00%    MPKI:0.00
PC:27814     Total:9      MisBP:0   MisRate:0.00%    MPKI:0.00
PC:3c078     Total:491      MisBP:0   MisRate:0.00%    MPKI:0.00
PC:27802     Total:767      MisBP:0   MisRate:0.00%    MPKI:0.00
PC:3c07a     Total:491      MisBP:0   MisRate:0.00%    MPKI:0.00
PC:27804     Total:767      MisBP:0   MisRate:0.00%    MPKI:0.00
PC:3c07c     Total:2184      MisBP:0   MisRate:0.00%    MPKI:0.00
PC:27806     Total:767      MisBP:0   MisRate:0.00%    MPKI:0.00
PC:3c084     Total:1526      MisBP:0   MisRate:0.00%    MPKI:0.00
PC:3c086     Total:1526      MisBP:0   MisRate:0.00%    MPKI:0.00
PC:27810     Total:767      MisBP:0   MisRate:0.00%    MPKI:0.00
PC:3c08a     Total:1012      MisBP:0   MisRate:0.00%    MPKI:0.00
PC:3c030     Total:932      MisBP:0   MisRate:0.00%    MPKI:0.00
PC:3c08c     Total:1012      MisBP:0   MisRate:0.00%    MPKI:0.00
PC:27816     Total:9      MisBP:0   MisRate:0.00%    MPKI:0.00
PC:3c08e     Total:1012      MisBP:0   MisRate:0.00%    MPKI:0.00
PC:27818     Total:9      MisBP:0   MisRate:0.00%    MPKI:0.00
PC:3c090     Total:983      MisBP:0   MisRate:0.00%    MPKI:0.00
PC:2781a     Total:9      MisBP:0   MisRate:0.00%    MPKI:0.00
PC:3c092     Total:983      MisBP:0   MisRate:0.00%    MPKI:0.00
PC:3c096     Total:966      MisBP:0   MisRate:0.00%    MPKI:0.00
PC:27820     Total:63      MisBP:0   MisRate:0.00%    MPKI:0.00
PC:beff4ff0     Total:1      MisBP:0   MisRate:0.00%    MPKI:0.00
PC:416dc     Total:121      MisBP:0   MisRate:0.00%    MPKI:0.00
PC:2ce68     Total:19708      MisBP:0   MisRate:0.00%    MPKI:0.00
PC:416e2     Total:105      MisBP:0   MisRate:0.00%    MPKI:0.00
PC:2ce6c     Total:7588      MisBP:0   MisRate:0.00%    MPKI:0.00
PC:416e4     Total:105      MisBP:0   MisRate:0.00%    MPKI:0.00
PC:1b43e     Total:134      MisBP:0   MisRate:0.00%    MPKI:0.00
PC:1b44e     Total:70      MisBP:0   MisRate:0.00%    MPKI:0.00
PC:2fcc4     Total:28      MisBP:0   MisRate:0.00%    MPKI:0.00
PC:1b452     Total:420      MisBP:0   MisRate:0.00%    MPKI:0.00
PC:2fcc8     Total:28      MisBP:0   MisRate:0.00%    MPKI:0.00
PC:2ce64     Total:19771      MisBP:0   MisRate:0.00%    MPKI:0.00
PC:beff4ff8     Total:1      MisBP:0   MisRate:0.00%    MPKI:0.00
PC:3157a     Total:231      MisBP:0   MisRate:0.00%    MPKI:0.00
PC:40f00     Total:167      MisBP:0   MisRate:0.00%    MPKI:0.00
PC:40f04     Total:167      MisBP:0   MisRate:0.00%    MPKI:0.00
PC:40f08     Total:167      MisBP:0   MisRate:0.00%    MPKI:0.00
PC:40f0c     Total:167      MisBP:0   MisRate:0.00%    MPKI:0.00
PC:17e20     Total:1      MisBP:0   MisRate:0.00%    MPKI:0.00
PC:40f10     Total:167      MisBP:0   MisRate:0.00%    MPKI:0.00
PC:40f14     Total:167      MisBP:0   MisRate:0.00%    MPKI:0.00
PC:416ca     Total:875      MisBP:0   MisRate:0.00%    MPKI:0.00
PC:416c0     Total:875      MisBP:0   MisRate:0.00%    MPKI:0.00
PC:2ce4a     Total:17215      MisBP:0   MisRate:0.00%    MPKI:0.00
PC:416c2     Total:875      MisBP:0   MisRate:0.00%    MPKI:0.00
PC:2ce4c     Total:17215      MisBP:0   MisRate:0.00%    MPKI:0.00
PC:416c4     Total:875      MisBP:0   MisRate:0.00%    MPKI:0.00
PC:2ce4e     Total:17215      MisBP:0   MisRate:0.00%    MPKI:0.00
PC:416c6     Total:875      MisBP:0   MisRate:0.00%    MPKI:0.00
PC:2ce50     Total:17215      MisBP:0   MisRate:0.00%    MPKI:0.00
PC:416c8     Total:875      MisBP:0   MisRate:0.00%    MPKI:0.00
PC:2ce52     Total:17236      MisBP:0   MisRate:0.00%    MPKI:0.00
PC:40f18     Total:167      MisBP:0   MisRate:0.00%    MPKI:0.00
PC:2ce54     Total:17236      MisBP:0   MisRate:0.00%    MPKI:0.00
PC:416cc     Total:875      MisBP:0   MisRate:0.00%    MPKI:0.00
PC:416d0     Total:191      MisBP:0   MisRate:0.00%    MPKI:0.00
PC:2ce5a     Total:15768      MisBP:0   MisRate:0.00%    MPKI:0.00
PC:2ce5c     Total:15761      MisBP:0   MisRate:0.00%    MPKI:0.00
PC:416d4     Total:190      MisBP:0   MisRate:0.00%    MPKI:0.00
PC:416d6     Total:190      MisBP:0   MisRate:0.00%    MPKI:0.00
PC:2ce60     Total:15761      MisBP:0   MisRate:0.00%    MPKI:0.00
PC:416da     Total:121      MisBP:0   MisRate:0.00%    MPKI:0.00
PC:3c01c     Total:569      MisBP:0   MisRate:0.00%    MPKI:0.00
PC:3c00e     Total:646      MisBP:0   MisRate:0.00%    MPKI:0.00
PC:3c010     Total:646      MisBP:0   MisRate:0.00%    MPKI:0.00
PC:2779a     Total:3      MisBP:0   MisRate:0.00%    MPKI:0.00
PC:3c014     Total:646      MisBP:0   MisRate:0.00%    MPKI:0.00
PC:3c016     Total:569      MisBP:0   MisRate:0.00%    MPKI:0.00
PC:277a0     Total:288      MisBP:0   MisRate:0.00%    MPKI:0.00
PC:3c018     Total:569      MisBP:0   MisRate:0.00%    MPKI:0.00
PC:277a2     Total:288      MisBP:0   MisRate:0.00%    MPKI:0.00
PC:3c01a     Total:569      MisBP:0   MisRate:0.00%    MPKI:0.00
PC:277a4     Total:288      MisBP:0   MisRate:0.00%    MPKI:0.00
PC:3c00a     Total:646      MisBP:0   MisRate:0.00%    MPKI:0.00
PC:277a6     Total:288      MisBP:0   MisRate:0.00%    MPKI:0.00
PC:3c01e     Total:569      MisBP:0   MisRate:0.00%    MPKI:0.00
PC:3c020     Total:5900      MisBP:0   MisRate:0.00%    MPKI:0.00
PC:3c024     Total:2950      MisBP:0   MisRate:0.00%    MPKI:0.00
PC:3c028     Total:3423      MisBP:0   MisRate:0.00%    MPKI:0.00
PC:277b2     Total:49      MisBP:0   MisRate:0.00%    MPKI:0.00
PC:3c02a     Total:3422      MisBP:0   MisRate:0.00%    MPKI:0.00
PC:277b6     Total:49      MisBP:0   MisRate:0.00%    MPKI:0.00
PC:3c02e     Total:944      MisBP:0   MisRate:0.00%    MPKI:0.00
PC:40970     Total:429      MisBP:0   MisRate:0.00%    MPKI:0.00
PC:17e2c     Total:1      MisBP:0   MisRate:0.00%    MPKI:0.00
PC:40f1a     Total:167      MisBP:0   MisRate:0.00%    MPKI:0.00
PC:40f1c     Total:164      MisBP:0   MisRate:0.00%    MPKI:0.00
PC:40f20     Total:164      MisBP:0   MisRate:0.00%    MPKI:0.00
PC:40f22     Total:164      MisBP:0   MisRate:0.00%    MPKI:0.00
PC:17e36     Total:1      MisBP:0   MisRate:0.00%    MPKI:0.00
PC:40f24     Total:164      MisBP:0   MisRate:0.00%    MPKI:0.00
PC:40f26     Total:164      MisBP:0   MisRate:0.00%    MPKI:0.00
PC:3d256     Total:1511      MisBP:0   MisRate:0.00%    MPKI:0.00
PC:405f8     Total:1      MisBP:0   MisRate:0.00%    MPKI:0.00
PC:40974     Total:429      MisBP:0   MisRate:0.00%    MPKI:0.00
PC:3bffe     Total:1437      MisBP:0   MisRate:0.00%    MPKI:0.00
PC:3c000     Total:646      MisBP:0   MisRate:0.00%    MPKI:0.00
PC:2778a     Total:12      MisBP:0   MisRate:0.00%    MPKI:0.00
PC:3c002     Total:646      MisBP:0   MisRate:0.00%    MPKI:0.00
PC:3c006     Total:646      MisBP:0   MisRate:0.00%    MPKI:0.00
PC:27790     Total:12      MisBP:0   MisRate:0.00%    MPKI:0.00
PC:3c008     Total:646      MisBP:0   MisRate:0.00%    MPKI:0.00
PC:27792     Total:12      MisBP:0   MisRate:0.00%    MPKI:0.00
PC:42178     Total:1      MisBP:0   MisRate:0.00%    MPKI:0.00
PC:18788     Total:115      MisBP:0   MisRate:0.00%    MPKI:0.00
PC:17ea2     Total:72644      MisBP:0   MisRate:0.00%    MPKI:0.00
PC:4187c     Total:71      MisBP:0   MisRate:0.00%    MPKI:0.00
PC:4216a     Total:34      MisBP:0   MisRate:0.00%    MPKI:0.00
PC:18790     Total:115      MisBP:0   MisRate:0.00%    MPKI:0.00
PC:41882     Total:42      MisBP:0   MisRate:0.00%    MPKI:0.00
PC:42170     Total:34      MisBP:0   MisRate:0.00%    MPKI:0.00
PC:18796     Total:115      MisBP:0   MisRate:0.00%    MPKI:0.00
PC:41888     Total:64      MisBP:0   MisRate:0.00%    MPKI:0.00
PC:17eb0     Total:75823      MisBP:0   MisRate:0.00%    MPKI:0.00
PC:41874     Total:68      MisBP:0   MisRate:0.00%    MPKI:0.00
PC:1879e     Total:2      MisBP:0   MisRate:0.00%    MPKI:0.00
PC:17eb4     Total:75591      MisBP:0   MisRate:0.00%    MPKI:0.00
PC:4188e     Total:10      MisBP:0   MisRate:0.00%    MPKI:0.00
PC:17eba     Total:50652      MisBP:0   MisRate:0.00%    MPKI:0.00
PC:41894     Total:10      MisBP:0   MisRate:0.00%    MPKI:0.00
PC:418a4     Total:2      MisBP:0   MisRate:0.00%    MPKI:0.00
PC:17ed0     Total:48713      MisBP:0   MisRate:0.00%    MPKI:0.00
PC:418aa     Total:1      MisBP:0   MisRate:0.00%    MPKI:0.00
PC:40ad0     Total:3223      MisBP:0   MisRate:0.00%    MPKI:0.00
PC:40b9e     Total:279      MisBP:0   MisRate:0.00%    MPKI:0.00
PC:3c1ec     Total:1      MisBP:0   MisRate:0.00%    MPKI:0.00
PC:3c1f0     Total:1      MisBP:0   MisRate:0.00%    MPKI:0.00
PC:3c1f2     Total:1      MisBP:0   MisRate:0.00%    MPKI:0.00
PC:3c13c     Total:8      MisBP:0   MisRate:0.00%    MPKI:0.00
PC:40b8e     Total:279      MisBP:0   MisRate:0.00%    MPKI:0.00
PC:40b90     Total:279      MisBP:0   MisRate:0.00%    MPKI:0.00
PC:40b92     Total:279      MisBP:0   MisRate:0.00%    MPKI:0.00
PC:40b94     Total:279      MisBP:0   MisRate:0.00%    MPKI:0.00
PC:40b96     Total:279      MisBP:0   MisRate:0.00%    MPKI:0.00
PC:40b9a     Total:279      MisBP:0   MisRate:0.00%    MPKI:0.00
PC:40ad2     Total:3223      MisBP:0   MisRate:0.00%    MPKI:0.00
PC:40ba0     Total:278      MisBP:0   MisRate:0.00%    MPKI:0.00
PC:40ba6     Total:264      MisBP:0   MisRate:0.00%    MPKI:0.00
PC:40baa     Total:264      MisBP:0   MisRate:0.00%    MPKI:0.00
PC:40bae     Total:260      MisBP:0   MisRate:0.00%    MPKI:0.00
PC:40bb2     Total:248      MisBP:0   MisRate:0.00%    MPKI:0.00
[...]
PC:1afd6     Total:32897      MisBP:5399   MisRate:16.41%    MPKI:0.02
PC:3c66c     Total:58880      MisBP:5416   MisRate:9.20%    MPKI:0.02
PC:190ce     Total:49568      MisBP:5426   MisRate:10.95%    MPKI:0.02
PC:16270     Total:46708      MisBP:5434   MisRate:11.63%    MPKI:0.02
PC:51a64     Total:40531      MisBP:5437   MisRate:13.41%    MPKI:0.02
PC:28c14     Total:63807      MisBP:5440   MisRate:8.53%    MPKI:0.02
PC:19364     Total:30958      MisBP:5466   MisRate:17.66%    MPKI:0.02
PC:3d95a     Total:12708      MisBP:5472   MisRate:43.06%    MPKI:0.02
PC:3ec4e     Total:14805      MisBP:5485   MisRate:37.05%    MPKI:0.02
PC:3818c     Total:14606      MisBP:5549   MisRate:37.99%    MPKI:0.02
PC:192cc     Total:64242      MisBP:5563   MisRate:8.66%    MPKI:0.02
PC:37d34     Total:194947      MisBP:5578   MisRate:2.86%    MPKI:0.02
PC:19a5e     Total:47217      MisBP:5603   MisRate:11.87%    MPKI:0.02
PC:3c804     Total:77412      MisBP:5638   MisRate:7.28%    MPKI:0.02
PC:15bb8     Total:37740      MisBP:5656   MisRate:14.99%    MPKI:0.02
PC:15dfa     Total:33578      MisBP:5674   MisRate:16.90%    MPKI:0.02
PC:19328     Total:104197      MisBP:5683   MisRate:5.45%    MPKI:0.02
PC:199de     Total:86344      MisBP:5700   MisRate:6.60%    MPKI:0.02
PC:196ea     Total:58067      MisBP:5720   MisRate:9.85%    MPKI:0.02
PC:3c264     Total:57907      MisBP:5729   MisRate:9.89%    MPKI:0.02
PC:190ae     Total:54241      MisBP:5737   MisRate:10.58%    MPKI:0.02
PC:1927e     Total:57843      MisBP:5775   MisRate:9.98%    MPKI:0.02
PC:1630e     Total:54982      MisBP:5837   MisRate:10.62%    MPKI:0.02
PC:19270     Total:58397      MisBP:5905   MisRate:10.11%    MPKI:0.02
PC:3e748     Total:25748      MisBP:5908   MisRate:22.95%    MPKI:0.02
PC:1636c     Total:59457      MisBP:5940   MisRate:9.99%    MPKI:0.02
PC:18f70     Total:63552      MisBP:5942   MisRate:9.35%    MPKI:0.02
PC:38088     Total:31849      MisBP:5942   MisRate:18.66%    MPKI:0.02
PC:1637a     Total:60649      MisBP:5976   MisRate:9.85%    MPKI:0.02
PC:38104     Total:34817      MisBP:6009   MisRate:17.26%    MPKI:0.02
PC:1afbc     Total:33783      MisBP:6019   MisRate:17.82%    MPKI:0.02
PC:192b4     Total:67443      MisBP:6030   MisRate:8.94%    MPKI:0.02
PC:1ae24     Total:38708      MisBP:6074   MisRate:15.69%    MPKI:0.02
PC:1635e     Total:59070      MisBP:6114   MisRate:10.35%    MPKI:0.02
PC:2cc9c     Total:64179      MisBP:6216   MisRate:9.69%    MPKI:0.02
PC:3c634     Total:86040      MisBP:6238   MisRate:7.25%    MPKI:0.02
PC:18bec     Total:604818      MisBP:6245   MisRate:1.03%    MPKI:0.02
PC:51368     Total:167912      MisBP:6295   MisRate:3.75%    MPKI:0.02
PC:3f4cc     Total:29717      MisBP:6309   MisRate:21.23%    MPKI:0.02
PC:38038     Total:55707      MisBP:6343   MisRate:11.39%    MPKI:0.02
PC:1973e     Total:48142      MisBP:6364   MisRate:13.22%    MPKI:0.02
PC:3ec3c     Total:43852      MisBP:6396   MisRate:14.59%    MPKI:0.02
PC:381c2     Total:33213      MisBP:6406   MisRate:19.29%    MPKI:0.02
PC:1af18     Total:55196      MisBP:6438   MisRate:11.66%    MPKI:0.02
PC:380cc     Total:39316      MisBP:6476   MisRate:16.47%    MPKI:0.02
PC:19302     Total:101871      MisBP:6541   MisRate:6.42%    MPKI:0.02
PC:382a2     Total:37683      MisBP:6568   MisRate:17.43%    MPKI:0.02
PC:166b2     Total:36290      MisBP:6584   MisRate:18.14%    MPKI:0.02
PC:19332     Total:103055      MisBP:6586   MisRate:6.39%    MPKI:0.02
PC:1ad0c     Total:60168      MisBP:6599   MisRate:10.97%    MPKI:0.02
PC:3d8a8     Total:23421      MisBP:6636   MisRate:28.33%    MPKI:0.02
PC:38338     Total:42832      MisBP:6637   MisRate:15.50%    MPKI:0.02
PC:3cfa6     Total:117814      MisBP:6661   MisRate:5.65%    MPKI:0.02
PC:38344     Total:22504      MisBP:6682   MisRate:29.69%    MPKI:0.02
PC:3850a     Total:38343      MisBP:6723   MisRate:17.53%    MPKI:0.02
PC:51a70     Total:42599      MisBP:6807   MisRate:15.98%    MPKI:0.02
PC:3d808     Total:50073      MisBP:6894   MisRate:13.77%    MPKI:0.02
PC:15fb6     Total:33631      MisBP:6938   MisRate:20.63%    MPKI:0.02
PC:18eba     Total:43241      MisBP:6954   MisRate:16.08%    MPKI:0.02
PC:1c82c     Total:75788      MisBP:6998   MisRate:9.23%    MPKI:0.02
PC:19748     Total:48809      MisBP:7009   MisRate:14.36%    MPKI:0.02
PC:38072     Total:45037      MisBP:7056   MisRate:15.67%    MPKI:0.02
PC:37e8a     Total:35977      MisBP:7067   MisRate:19.64%    MPKI:0.02
PC:38a32     Total:32410      MisBP:7069   MisRate:21.81%    MPKI:0.02
PC:162d0     Total:29666      MisBP:7095   MisRate:23.92%    MPKI:0.02
PC:3ce46     Total:32104      MisBP:7157   MisRate:22.29%    MPKI:0.02
PC:3ab02     Total:41395      MisBP:7292   MisRate:17.62%    MPKI:0.02
PC:1b82c     Total:71146      MisBP:7297   MisRate:10.26%    MPKI:0.02
PC:1615e     Total:80313      MisBP:7325   MisRate:9.12%    MPKI:0.02
PC:19a82     Total:450024      MisBP:7391   MisRate:1.64%    MPKI:0.02
PC:15d22     Total:52808      MisBP:7485   MisRate:14.17%    MPKI:0.02
PC:15e66     Total:38802      MisBP:7495   MisRate:19.32%    MPKI:0.02
PC:15e30     Total:34997      MisBP:7633   MisRate:21.81%    MPKI:0.02
PC:1c77e     Total:61619      MisBP:7646   MisRate:12.41%    MPKI:0.02
PC:192f6     Total:106427      MisBP:7759   MisRate:7.29%    MPKI:0.03
PC:3c5cc     Total:78243      MisBP:7787   MisRate:9.95%    MPKI:0.03
PC:379ac     Total:111810      MisBP:7816   MisRate:6.99%    MPKI:0.03
PC:156fa     Total:106501      MisBP:7897   MisRate:7.41%    MPKI:0.03
PC:3c7ee     Total:62628      MisBP:7938   MisRate:12.67%    MPKI:0.03
PC:1596a     Total:220808      MisBP:7969   MisRate:3.61%    MPKI:0.03
PC:410ee     Total:25512      MisBP:8037   MisRate:31.50%    MPKI:0.03
PC:162d6     Total:51626      MisBP:8070   MisRate:15.63%    MPKI:0.03
PC:3c7bc     Total:55400      MisBP:8159   MisRate:14.73%    MPKI:0.03
PC:1adcc     Total:76944      MisBP:8172   MisRate:10.62%    MPKI:0.03
PC:18a14     Total:51316      MisBP:8183   MisRate:15.95%    MPKI:0.03
PC:3c7e0     Total:74941      MisBP:8217   MisRate:10.96%    MPKI:0.03
PC:1882e     Total:196789      MisBP:8240   MisRate:4.19%    MPKI:0.03
PC:192ea     Total:102738      MisBP:8306   MisRate:8.08%    MPKI:0.03
PC:37ce8     Total:47659      MisBP:8322   MisRate:17.46%    MPKI:0.03
PC:2866a     Total:170026      MisBP:8374   MisRate:4.93%    MPKI:0.03
PC:1a78a     Total:38378      MisBP:8404   MisRate:21.90%    MPKI:0.03
PC:38172     Total:29245      MisBP:8473   MisRate:28.97%    MPKI:0.03
PC:3807e     Total:54378      MisBP:8543   MisRate:15.71%    MPKI:0.03
PC:3ce00     Total:35542      MisBP:8716   MisRate:24.52%    MPKI:0.03
PC:197da     Total:81732      MisBP:8734   MisRate:10.69%    MPKI:0.03
PC:1b7f0     Total:108117      MisBP:8750   MisRate:8.09%    MPKI:0.03
PC:1614c     Total:48447      MisBP:8777   MisRate:18.12%    MPKI:0.03
PC:19018     Total:69574      MisBP:8872   MisRate:12.75%    MPKI:0.03
PC:158ca     Total:70760      MisBP:8961   MisRate:12.66%    MPKI:0.03
PC:3816a     Total:38341      MisBP:9027   MisRate:23.54%    MPKI:0.03
PC:1c200     Total:76638      MisBP:9079   MisRate:11.85%    MPKI:0.03
PC:1931c     Total:103330      MisBP:9111   MisRate:8.82%    MPKI:0.03
PC:37ce2     Total:54616      MisBP:9152   MisRate:16.76%    MPKI:0.03
PC:17eae     Total:72638      MisBP:9232   MisRate:12.71%    MPKI:0.03
PC:382d0     Total:47771      MisBP:9322   MisRate:19.51%    MPKI:0.03
PC:15ca2     Total:63348      MisBP:9328   MisRate:14.73%    MPKI:0.03
PC:1c15c     Total:78129      MisBP:9358   MisRate:11.98%    MPKI:0.03
PC:190a6     Total:60521      MisBP:9359   MisRate:15.46%    MPKI:0.03
PC:163b0     Total:55986      MisBP:9402   MisRate:16.79%    MPKI:0.03
PC:9e50c     Total:257192      MisBP:9470   MisRate:3.68%    MPKI:0.03
PC:15972     Total:210005      MisBP:9526   MisRate:4.54%    MPKI:0.03
PC:3c74a     Total:104177      MisBP:9530   MisRate:9.15%    MPKI:0.03
PC:3bfda     Total:67037      MisBP:9623   MisRate:14.35%    MPKI:0.03
PC:17db0     Total:134380      MisBP:9666   MisRate:7.19%    MPKI:0.03
PC:1bf82     Total:137114      MisBP:9668   MisRate:7.05%    MPKI:0.03
PC:1ad02     Total:41563      MisBP:9686   MisRate:23.30%    MPKI:0.03
PC:1608e     Total:41307      MisBP:9697   MisRate:23.48%    MPKI:0.03
PC:18df0     Total:77317      MisBP:9789   MisRate:12.66%    MPKI:0.03
PC:187b4     Total:478679      MisBP:9809   MisRate:2.05%    MPKI:0.03
PC:1c0b6     Total:72737      MisBP:9829   MisRate:13.51%    MPKI:0.03
PC:18f84     Total:62356      MisBP:9847   MisRate:15.79%    MPKI:0.03
PC:3cb1a     Total:41580      MisBP:9935   MisRate:23.89%    MPKI:0.03
PC:162e0     Total:56673      MisBP:9993   MisRate:17.63%    MPKI:0.03
PC:3829a     Total:48392      MisBP:9993   MisRate:20.65%    MPKI:0.03
PC:15942     Total:135325      MisBP:10125   MisRate:7.48%    MPKI:0.03
PC:37ca4     Total:51787      MisBP:10129   MisRate:19.56%    MPKI:0.03
PC:41130     Total:32151      MisBP:10301   MisRate:32.04%    MPKI:0.03
PC:18fce     Total:68142      MisBP:10400   MisRate:15.26%    MPKI:0.03
PC:3819c     Total:64914      MisBP:10568   MisRate:16.28%    MPKI:0.03
PC:38030     Total:63028      MisBP:10697   MisRate:16.97%    MPKI:0.03
PC:1acf6     Total:52139      MisBP:10763   MisRate:20.64%    MPKI:0.03
PC:3804c     Total:76792      MisBP:11008   MisRate:14.33%    MPKI:0.04
PC:15bd2     Total:68727      MisBP:11008   MisRate:16.02%    MPKI:0.04
PC:159ce     Total:199148      MisBP:11082   MisRate:5.56%    MPKI:0.04
PC:3c7b2     Total:81465      MisBP:11083   MisRate:13.60%    MPKI:0.04
PC:1c04a     Total:124064      MisBP:11094   MisRate:8.94%    MPKI:0.04
PC:15cac     Total:56652      MisBP:11162   MisRate:19.70%    MPKI:0.04
PC:1acc2     Total:73313      MisBP:11210   MisRate:15.29%    MPKI:0.04
PC:15bea     Total:69023      MisBP:11244   MisRate:16.29%    MPKI:0.04
PC:379b0     Total:113289      MisBP:11254   MisRate:9.93%    MPKI:0.04
PC:16138     Total:86118      MisBP:11313   MisRate:13.14%    MPKI:0.04
PC:380fe     Total:65398      MisBP:11376   MisRate:17.40%    MPKI:0.04
PC:3be8e     Total:62296      MisBP:11589   MisRate:18.60%    MPKI:0.04
PC:1aca4     Total:89916      MisBP:11632   MisRate:12.94%    MPKI:0.04
PC:24ccc     Total:171843      MisBP:11661   MisRate:6.79%    MPKI:0.04
PC:1ad06     Total:72531      MisBP:11689   MisRate:16.12%    MPKI:0.04
PC:164c6     Total:64939      MisBP:11722   MisRate:18.05%    MPKI:0.04
PC:15bc0     Total:60312      MisBP:12010   MisRate:19.91%    MPKI:0.04
PC:154b2     Total:259377      MisBP:12014   MisRate:4.63%    MPKI:0.04
PC:1b862     Total:47666      MisBP:12203   MisRate:25.60%    MPKI:0.04
PC:1bfa2     Total:215507      MisBP:12358   MisRate:5.73%    MPKI:0.04
PC:16198     Total:76484      MisBP:12415   MisRate:16.23%    MPKI:0.04
PC:37d84     Total:147612      MisBP:12667   MisRate:8.58%    MPKI:0.04
PC:3c64a     Total:87075      MisBP:12702   MisRate:14.59%    MPKI:0.04
PC:15e94     Total:43622      MisBP:12745   MisRate:29.22%    MPKI:0.04
PC:38052     Total:74993      MisBP:12884   MisRate:17.18%    MPKI:0.04
PC:3806a     Total:80142      MisBP:13366   MisRate:16.68%    MPKI:0.04
PC:19a52     Total:72984      MisBP:13382   MisRate:18.34%    MPKI:0.04
PC:15c9c     Total:111621      MisBP:13415   MisRate:12.02%    MPKI:0.04
PC:1c7d4     Total:49036      MisBP:13526   MisRate:27.58%    MPKI:0.04
PC:156b6     Total:232883      MisBP:13704   MisRate:5.88%    MPKI:0.04
PC:3c298     Total:72436      MisBP:13872   MisRate:19.15%    MPKI:0.04
PC:1acbc     Total:91559      MisBP:13901   MisRate:15.18%    MPKI:0.04
PC:512ba     Total:129099      MisBP:13920   MisRate:10.78%    MPKI:0.04
PC:3bfc6     Total:55487      MisBP:13992   MisRate:25.22%    MPKI:0.05
PC:18e00     Total:253380      MisBP:14163   MisRate:5.59%    MPKI:0.05
PC:1bfe2     Total:280788      MisBP:14383   MisRate:5.12%    MPKI:0.05
PC:37da0     Total:87710      MisBP:14399   MisRate:16.42%    MPKI:0.05
PC:18dfa     Total:107530      MisBP:14403   MisRate:13.39%    MPKI:0.05
PC:1acb8     Total:67658      MisBP:14408   MisRate:21.30%    MPKI:0.05
PC:159d4     Total:166846      MisBP:14654   MisRate:8.78%    MPKI:0.05
PC:51360     Total:300914      MisBP:14867   MisRate:4.94%    MPKI:0.05
PC:37de0     Total:114580      MisBP:14923   MisRate:13.02%    MPKI:0.05
PC:1973c     Total:100297      MisBP:14927   MisRate:14.88%    MPKI:0.05
PC:3c692     Total:100675      MisBP:15044   MisRate:14.94%    MPKI:0.05
PC:19754     Total:105464      MisBP:15188   MisRate:14.40%    MPKI:0.05
PC:19a6c     Total:76735      MisBP:15512   MisRate:20.22%    MPKI:0.05
PC:37d2e     Total:218565      MisBP:15942   MisRate:7.29%    MPKI:0.05
PC:15c92     Total:130184      MisBP:16015   MisRate:12.30%    MPKI:0.05
PC:37d48     Total:166672      MisBP:16039   MisRate:9.62%    MPKI:0.05
PC:1acaa     Total:80309      MisBP:16142   MisRate:20.10%    MPKI:0.05
PC:1accc     Total:74436      MisBP:16213   MisRate:21.78%    MPKI:0.05
PC:159e8     Total:164111      MisBP:16342   MisRate:9.96%    MPKI:0.05
PC:17eb8     Total:75591      MisBP:16578   MisRate:21.93%    MPKI:0.05
PC:37d8c     Total:121902      MisBP:16588   MisRate:13.61%    MPKI:0.05
PC:199dc     Total:132873      MisBP:16645   MisRate:12.53%    MPKI:0.05
PC:197f4     Total:84837      MisBP:17197   MisRate:20.27%    MPKI:0.06
PC:164b4     Total:65515      MisBP:17252   MisRate:26.33%    MPKI:0.06
PC:3bf76     Total:522517      MisBP:17473   MisRate:3.34%    MPKI:0.06
PC:14e10     Total:79218      MisBP:17620   MisRate:22.24%    MPKI:0.06
PC:3cfac     Total:107851      MisBP:17856   MisRate:16.56%    MPKI:0.06
PC:1b830     Total:58457      MisBP:17913   MisRate:30.64%    MPKI:0.06
PC:14e64     Total:112211      MisBP:18198   MisRate:16.22%    MPKI:0.06
PC:18d56     Total:129163      MisBP:18407   MisRate:14.25%    MPKI:0.06
PC:382aa     Total:76954      MisBP:18558   MisRate:24.12%    MPKI:0.06
PC:159ee     Total:161174      MisBP:19587   MisRate:12.15%    MPKI:0.06
PC:15b50     Total:86547      MisBP:19800   MisRate:22.88%    MPKI:0.06
PC:176c2     Total:197860      MisBP:19870   MisRate:10.04%    MPKI:0.06
PC:17de6     Total:119706      MisBP:19987   MisRate:16.70%    MPKI:0.06
PC:1aca0     Total:109658      MisBP:20028   MisRate:18.26%    MPKI:0.06
PC:14ee6     Total:130265      MisBP:20458   MisRate:15.70%    MPKI:0.07
PC:14ea4     Total:124601      MisBP:20542   MisRate:16.49%    MPKI:0.07
PC:1ace0     Total:121684      MisBP:21351   MisRate:17.55%    MPKI:0.07
PC:1acd6     Total:118607      MisBP:21548   MisRate:18.17%    MPKI:0.07
PC:18f6a     Total:221262      MisBP:21759   MisRate:9.83%    MPKI:0.07
PC:18dde     Total:91412      MisBP:21831   MisRate:23.88%    MPKI:0.07
PC:14f26     Total:135786      MisBP:21944   MisRate:16.16%    MPKI:0.07
PC:1576e     Total:119129      MisBP:22002   MisRate:18.47%    MPKI:0.07
PC:3c220     Total:283570      MisBP:22232   MisRate:7.84%    MPKI:0.07
PC:159f8     Total:168416      MisBP:22308   MisRate:13.25%    MPKI:0.07
PC:1c01e     Total:166394      MisBP:22550   MisRate:13.55%    MPKI:0.07
PC:1c1d2     Total:117270      MisBP:23088   MisRate:19.69%    MPKI:0.07
PC:159fe     Total:176483      MisBP:23202   MisRate:13.15%    MPKI:0.07
PC:1c088     Total:90339      MisBP:23241   MisRate:25.73%    MPKI:0.07
PC:1c12c     Total:144435      MisBP:23311   MisRate:16.14%    MPKI:0.08
PC:17fcc     Total:238078      MisBP:23601   MisRate:9.91%    MPKI:0.08
PC:192ac     Total:179891      MisBP:23720   MisRate:13.19%    MPKI:0.08
PC:15a08     Total:194638      MisBP:23817   MisRate:12.24%    MPKI:0.08
PC:19614     Total:335837      MisBP:23877   MisRate:7.11%    MPKI:0.08
PC:15950     Total:146837      MisBP:24441   MisRate:16.64%    MPKI:0.08
PC:1925a     Total:158652      MisBP:24464   MisRate:15.42%    MPKI:0.08
PC:199f6     Total:175385      MisBP:26511   MisRate:15.12%    MPKI:0.09
PC:18cde     Total:254028      MisBP:26708   MisRate:10.51%    MPKI:0.09
PC:3bf88     Total:84648      MisBP:26992   MisRate:31.89%    MPKI:0.09
PC:15a0e     Total:206328      MisBP:27375   MisRate:13.27%    MPKI:0.09
PC:18d6a     Total:101669      MisBP:27533   MisRate:27.08%    MPKI:0.09
PC:18d72     Total:118434      MisBP:28322   MisRate:23.91%    MPKI:0.09
PC:192e0     Total:185895      MisBP:28413   MisRate:15.28%    MPKI:0.09
PC:3c224     Total:295374      MisBP:28815   MisRate:9.76%    MPKI:0.09
PC:1b7f4     Total:100570      MisBP:28889   MisRate:28.73%    MPKI:0.09
PC:37d7c     Total:210267      MisBP:29019   MisRate:13.80%    MPKI:0.09
PC:18d76     Total:134582      MisBP:29513   MisRate:21.93%    MPKI:0.10
PC:154ac     Total:249714      MisBP:29697   MisRate:11.89%    MPKI:0.10
PC:3ca14     Total:219183      MisBP:29864   MisRate:13.63%    MPKI:0.10
PC:17e74     Total:111069      MisBP:30771   MisRate:27.70%    MPKI:0.10
PC:3ca34     Total:205116      MisBP:30822   MisRate:15.03%    MPKI:0.10
PC:512b6     Total:294870      MisBP:30979   MisRate:10.51%    MPKI:0.10
PC:18d4c     Total:156982      MisBP:31526   MisRate:20.08%    MPKI:0.10
PC:14f62     Total:141460      MisBP:31885   MisRate:22.54%    MPKI:0.10
PC:1595a     Total:171881      MisBP:33634   MisRate:19.57%    MPKI:0.11
PC:15a1e     Total:119636      MisBP:34338   MisRate:28.70%    MPKI:0.11
PC:155e6     Total:166387      MisBP:34972   MisRate:21.02%    MPKI:0.11
PC:154a2     Total:184291      MisBP:35375   MisRate:19.20%    MPKI:0.11
PC:3ca32     Total:299607      MisBP:35461   MisRate:11.84%    MPKI:0.11
PC:37de6     Total:247395      MisBP:35473   MisRate:14.34%    MPKI:0.11
PC:15964     Total:201336      MisBP:35867   MisRate:17.81%    MPKI:0.12
PC:157ba     Total:122014      MisBP:36608   MisRate:30.00%    MPKI:0.12
PC:84c10     Total:88898      MisBP:38462   MisRate:43.27%    MPKI:0.12
PC:3ca0a     Total:280420      MisBP:40246   MisRate:14.35%    MPKI:0.13
PC:18d3e     Total:186628      MisBP:40668   MisRate:21.79%    MPKI:0.13
PC:19314     Total:202605      MisBP:40716   MisRate:20.10%    MPKI:0.13
PC:37e7a     Total:805549      MisBP:41345   MisRate:5.13%    MPKI:0.13
PC:3c6e4     Total:168252      MisBP:41556   MisRate:24.70%    MPKI:0.13
PC:3c73a     Total:289802      MisBP:42134   MisRate:14.54%    MPKI:0.14
PC:18bb2     Total:307307      MisBP:42736   MisRate:13.91%    MPKI:0.14
PC:1bf88     Total:127791      MisBP:43069   MisRate:33.70%    MPKI:0.14
PC:512ac     Total:488545      MisBP:43855   MisRate:8.98%    MPKI:0.14
PC:17dac     Total:174676      MisBP:44677   MisRate:25.58%    MPKI:0.14
PC:15b40     Total:204032      MisBP:45444   MisRate:22.27%    MPKI:0.15
PC:14fb8     Total:974287      MisBP:45520   MisRate:4.67%    MPKI:0.15
PC:18d34     Total:237515      MisBP:46502   MisRate:19.58%    MPKI:0.15
PC:15a16     Total:178968      MisBP:48701   MisRate:27.21%    MPKI:0.16
PC:1bfe8     Total:260249      MisBP:49712   MisRate:19.10%    MPKI:0.16
PC:14fa8     Total:207734      MisBP:50905   MisRate:24.50%    MPKI:0.16
PC:156e4     Total:332008      MisBP:51619   MisRate:15.55%    MPKI:0.17
PC:1bfa8     Total:189237      MisBP:54435   MisRate:28.77%    MPKI:0.18
PC:156a4     Total:301283      MisBP:57889   MisRate:19.21%    MPKI:0.19
PC:188ca     Total:326255      MisBP:61069   MisRate:18.72%    MPKI:0.20
PC:18bda     Total:551022      MisBP:63130   MisRate:11.46%    MPKI:0.20
PC:24cc8     Total:247780      MisBP:64859   MisRate:26.18%    MPKI:0.21
PC:1bfca     Total:263607      MisBP:67089   MisRate:25.45%    MPKI:0.22
PC:14fb2     Total:902897      MisBP:73009   MisRate:8.09%    MPKI:0.24
PC:3bf7c     Total:500695      MisBP:74307   MisRate:14.84%    MPKI:0.24
PC:18bde     Total:608180      MisBP:91802   MisRate:15.09%    MPKI:0.30
PC:17694     Total:2957557      MisBP:133687   MisRate:4.52%    MPKI:0.43
PC:1a934     Total:621445      MisBP:147832   MisRate:23.79%    MPKI:0.48
Totfetch:641282272  TotInsts:310000000  TotMis : inf%   MPKI : 21.09
=============finish sim!!!!!!=============
Done running SimPoint!
