Global frequency set at 1000000000000 ticks per second
 Register [printBranch()] ExitCallback !!!!!!! 
gem5 Simulator System.  https://www.gem5.org
gem5 is copyrighted software; use the --copyright option for details.

gem5 version 22.0.0.2
gem5 compiled Sep  7 2022 00:42:18
gem5 started Sep  7 2022 02:06:38
gem5 executing on a100, pid 2730702
command line: /data/zxf/gem5/gem5-prof/build/ARM/gem5.fast --outdir=/data/zxf/checkpoint/spec2006/401.bzip2/prof/bzip2_ckp_3 /data/zxf/gem5/gem5-prof/configs/example/se.py --cpu-type O3CPU --cpu-clock 1GHz --num-cpu 1 --l1d-hwp-type=BOPPrefetcher --caches --l2cache --l1i_size 32kB --l1d_size 32kB --l2_size 1MB --l1i_assoc 8 --l1d_assoc 8 --l2_assoc 16 --cacheline_size 64 --mem-type DDR3_2133_8x8 --mem-size 16GB --restore-simpoint-checkpoint -r 3 --checkpoint-dir /data/zxf/checkpoint/spec2006/401.bzip2/ckpt -c bzip2_base.gcc41-64bit -o 'input.source 280'

info: Standard input is not a terminal, disabling listeners.
Resuming from /data/zxf/checkpoint/spec2006/401.bzip2/ckpt/cpt.simpoint_02_inst_49490000000_weight_0.101530_interval_300000000_warmup_10000000
Resuming from SimPoint #2, start_inst:49490000000, weight:0.101530, interval:300000000, warmup:10000000
Switch at curTick count:10000
Switched CPUS @ tick 30522660512500
[(<m5.objects.ArmCPU.ArmAtomicSimpleCPU object at 0x7f2227ac3bb0>, <m5.objects.ArmCPU.ArmO3CPU object at 0x7f2227adbe20>)]
switching cpus



+++++++++++++++++++++++++zxf print simpoint+++++++++++++++++++++++++++
Warmed up! Dumping and resetting stats!


=============start sim!!!!!!=============
PC:162e6     Total:32105      MisBP:0   MisRate:0.00%    MPKI:0.00
PC:16300     Total:32019      MisBP:0   MisRate:0.00%    MPKI:0.00
PC:162fe     Total:32095      MisBP:0   MisRate:0.00%    MPKI:0.00
PC:162fc     Total:32095      MisBP:0   MisRate:0.00%    MPKI:0.00
PC:162fa     Total:32142      MisBP:0   MisRate:0.00%    MPKI:0.00
PC:162f8     Total:32144      MisBP:0   MisRate:0.00%    MPKI:0.00
PC:162f4     Total:32146      MisBP:0   MisRate:0.00%    MPKI:0.00
PC:162f2     Total:32146      MisBP:0   MisRate:0.00%    MPKI:0.00
PC:162ee     Total:32146      MisBP:0   MisRate:0.00%    MPKI:0.00
PC:162ec     Total:32149      MisBP:0   MisRate:0.00%    MPKI:0.00
PC:162ea     Total:32149      MisBP:0   MisRate:0.00%    MPKI:0.00
PC:162e8     Total:32102      MisBP:0   MisRate:0.00%    MPKI:0.00
PC:16304     Total:32011      MisBP:0   MisRate:0.00%    MPKI:0.00
PC:162e4     Total:32093      MisBP:0   MisRate:0.00%    MPKI:0.00
PC:162e2     Total:32093      MisBP:0   MisRate:0.00%    MPKI:0.00
PC:162e0     Total:32085      MisBP:0   MisRate:0.00%    MPKI:0.00
PC:162de     Total:32085      MisBP:0   MisRate:0.00%    MPKI:0.00
PC:162da     Total:32041      MisBP:0   MisRate:0.00%    MPKI:0.00
PC:162d8     Total:32041      MisBP:0   MisRate:0.00%    MPKI:0.00
PC:162d6     Total:32041      MisBP:0   MisRate:0.00%    MPKI:0.00
PC:162d4     Total:32041      MisBP:0   MisRate:0.00%    MPKI:0.00
PC:162d2     Total:31998      MisBP:0   MisRate:0.00%    MPKI:0.00
PC:162ce     Total:31998      MisBP:0   MisRate:0.00%    MPKI:0.00
PC:162cc     Total:31998      MisBP:0   MisRate:0.00%    MPKI:0.00
PC:16324     Total:31947      MisBP:0   MisRate:0.00%    MPKI:0.00
PC:16340     Total:31834      MisBP:0   MisRate:0.00%    MPKI:0.00
PC:1633e     Total:31878      MisBP:0   MisRate:0.00%    MPKI:0.00
PC:1633c     Total:31878      MisBP:0   MisRate:0.00%    MPKI:0.00
PC:16338     Total:31878      MisBP:0   MisRate:0.00%    MPKI:0.00
PC:16334     Total:31878      MisBP:0   MisRate:0.00%    MPKI:0.00
PC:16332     Total:31878      MisBP:0   MisRate:0.00%    MPKI:0.00
PC:1632e     Total:31878      MisBP:0   MisRate:0.00%    MPKI:0.00
PC:1632c     Total:31878      MisBP:0   MisRate:0.00%    MPKI:0.00
PC:1632a     Total:31999      MisBP:0   MisRate:0.00%    MPKI:0.00
PC:16328     Total:31993      MisBP:0   MisRate:0.00%    MPKI:0.00
PC:16326     Total:31947      MisBP:0   MisRate:0.00%    MPKI:0.00
PC:162ca     Total:31998      MisBP:0   MisRate:0.00%    MPKI:0.00
PC:16322     Total:31947      MisBP:0   MisRate:0.00%    MPKI:0.00
PC:1631e     Total:31934      MisBP:0   MisRate:0.00%    MPKI:0.00
PC:1631c     Total:31935      MisBP:0   MisRate:0.00%    MPKI:0.00
PC:1631a     Total:31954      MisBP:0   MisRate:0.00%    MPKI:0.00
PC:16316     Total:31980      MisBP:0   MisRate:0.00%    MPKI:0.00
PC:16312     Total:31980      MisBP:0   MisRate:0.00%    MPKI:0.00
PC:16310     Total:31995      MisBP:0   MisRate:0.00%    MPKI:0.00
PC:1630c     Total:31995      MisBP:0   MisRate:0.00%    MPKI:0.00
PC:16308     Total:32011      MisBP:0   MisRate:0.00%    MPKI:0.00
PC:16306     Total:32011      MisBP:0   MisRate:0.00%    MPKI:0.00
PC:1627a     Total:31982      MisBP:0   MisRate:0.00%    MPKI:0.00
PC:16292     Total:31935      MisBP:0   MisRate:0.00%    MPKI:0.00
PC:16290     Total:31891      MisBP:0   MisRate:0.00%    MPKI:0.00
PC:1628e     Total:31895      MisBP:0   MisRate:0.00%    MPKI:0.00
PC:1628c     Total:31895      MisBP:0   MisRate:0.00%    MPKI:0.00
PC:1628a     Total:31865      MisBP:0   MisRate:0.00%    MPKI:0.00
PC:16288     Total:31865      MisBP:0   MisRate:0.00%    MPKI:0.00
PC:16284     Total:31865      MisBP:0   MisRate:0.00%    MPKI:0.00
PC:16282     Total:31865      MisBP:0   MisRate:0.00%    MPKI:0.00
PC:16280     Total:31865      MisBP:0   MisRate:0.00%    MPKI:0.00
PC:1627e     Total:31982      MisBP:0   MisRate:0.00%    MPKI:0.00
PC:1627c     Total:31982      MisBP:0   MisRate:0.00%    MPKI:0.00
PC:16294     Total:31935      MisBP:0   MisRate:0.00%    MPKI:0.00
PC:16276     Total:32059      MisBP:0   MisRate:0.00%    MPKI:0.00
PC:16274     Total:32059      MisBP:0   MisRate:0.00%    MPKI:0.00
PC:16270     Total:32059      MisBP:0   MisRate:0.00%    MPKI:0.00
PC:1626e     Total:32059      MisBP:0   MisRate:0.00%    MPKI:0.00
PC:1626a     Total:32059      MisBP:0   MisRate:0.00%    MPKI:0.00
PC:16268     Total:32059      MisBP:0   MisRate:0.00%    MPKI:0.00
PC:16266     Total:32068      MisBP:0   MisRate:0.00%    MPKI:0.00
PC:16264     Total:32068      MisBP:0   MisRate:0.00%    MPKI:0.00
PC:16262     Total:32074      MisBP:0   MisRate:0.00%    MPKI:0.00
PC:16260     Total:32074      MisBP:0   MisRate:0.00%    MPKI:0.00
PC:162ac     Total:32059      MisBP:0   MisRate:0.00%    MPKI:0.00
PC:162c8     Total:31989      MisBP:0   MisRate:0.00%    MPKI:0.00
PC:162c6     Total:31989      MisBP:0   MisRate:0.00%    MPKI:0.00
PC:162c4     Total:31989      MisBP:0   MisRate:0.00%    MPKI:0.00
PC:162c0     Total:31989      MisBP:0   MisRate:0.00%    MPKI:0.00
PC:162be     Total:32184      MisBP:0   MisRate:0.00%    MPKI:0.00
PC:162bc     Total:32184      MisBP:0   MisRate:0.00%    MPKI:0.00
PC:162ba     Total:32140      MisBP:0   MisRate:0.00%    MPKI:0.00
PC:162b6     Total:32140      MisBP:0   MisRate:0.00%    MPKI:0.00
PC:162b4     Total:32141      MisBP:0   MisRate:0.00%    MPKI:0.00
PC:162b2     Total:32154      MisBP:0   MisRate:0.00%    MPKI:0.00
PC:162b0     Total:32057      MisBP:0   MisRate:0.00%    MPKI:0.00
PC:16344     Total:31834      MisBP:0   MisRate:0.00%    MPKI:0.00
PC:162aa     Total:32059      MisBP:0   MisRate:0.00%    MPKI:0.00
PC:162a8     Total:32069      MisBP:0   MisRate:0.00%    MPKI:0.00
PC:162a6     Total:32022      MisBP:0   MisRate:0.00%    MPKI:0.00
PC:162a4     Total:32022      MisBP:0   MisRate:0.00%    MPKI:0.00
PC:162a2     Total:32029      MisBP:0   MisRate:0.00%    MPKI:0.00
PC:162a0     Total:32032      MisBP:0   MisRate:0.00%    MPKI:0.00
PC:1629e     Total:31938      MisBP:0   MisRate:0.00%    MPKI:0.00
PC:1629c     Total:31939      MisBP:0   MisRate:0.00%    MPKI:0.00
PC:1629a     Total:31932      MisBP:0   MisRate:0.00%    MPKI:0.00
PC:16296     Total:31935      MisBP:0   MisRate:0.00%    MPKI:0.00
PC:18b68     Total:47      MisBP:0   MisRate:0.00%    MPKI:0.00
PC:163ba     Total:32023      MisBP:0   MisRate:0.00%    MPKI:0.00
PC:18b76     Total:46      MisBP:0   MisRate:0.00%    MPKI:0.00
PC:163b8     Total:32024      MisBP:0   MisRate:0.00%    MPKI:0.00
PC:18b74     Total:46      MisBP:0   MisRate:0.00%    MPKI:0.00
PC:163b6     Total:31874      MisBP:0   MisRate:0.00%    MPKI:0.00
PC:18b70     Total:46      MisBP:0   MisRate:0.00%    MPKI:0.00
PC:163b2     Total:31874      MisBP:0   MisRate:0.00%    MPKI:0.00
PC:18b6c     Total:47      MisBP:0   MisRate:0.00%    MPKI:0.00
PC:163ae     Total:31875      MisBP:0   MisRate:0.00%    MPKI:0.00
PC:18b6a     Total:47      MisBP:0   MisRate:0.00%    MPKI:0.00
PC:163ac     Total:31875      MisBP:0   MisRate:0.00%    MPKI:0.00
PC:163be     Total:31921      MisBP:0   MisRate:0.00%    MPKI:0.00
PC:163aa     Total:31917      MisBP:0   MisRate:0.00%    MPKI:0.00
PC:18b66     Total:47      MisBP:0   MisRate:0.00%    MPKI:0.00
PC:163a8     Total:31844      MisBP:0   MisRate:0.00%    MPKI:0.00
PC:163a6     Total:31851      MisBP:0   MisRate:0.00%    MPKI:0.00
PC:163a4     Total:31855      MisBP:0   MisRate:0.00%    MPKI:0.00
PC:18b60     Total:21614      MisBP:0   MisRate:0.00%    MPKI:0.00
PC:163a2     Total:31855      MisBP:0   MisRate:0.00%    MPKI:0.00
PC:18b5e     Total:10807      MisBP:0   MisRate:0.00%    MPKI:0.00
PC:163a0     Total:31855      MisBP:0   MisRate:0.00%    MPKI:0.00
PC:18b5c     Total:8136      MisBP:0   MisRate:0.00%    MPKI:0.00
PC:18b88     Total:54      MisBP:0   MisRate:0.00%    MPKI:0.00
PC:163da     Total:32139      MisBP:0   MisRate:0.00%    MPKI:0.00
PC:18b94     Total:63      MisBP:0   MisRate:0.00%    MPKI:0.00
PC:163d6     Total:32140      MisBP:0   MisRate:0.00%    MPKI:0.00
PC:18b92     Total:63      MisBP:0   MisRate:0.00%    MPKI:0.00
PC:163d4     Total:32140      MisBP:0   MisRate:0.00%    MPKI:0.00
PC:163d2     Total:32119      MisBP:0   MisRate:0.00%    MPKI:0.00
PC:18b8e     Total:54      MisBP:0   MisRate:0.00%    MPKI:0.00
PC:163d0     Total:32119      MisBP:0   MisRate:0.00%    MPKI:0.00
PC:18b8c     Total:54      MisBP:0   MisRate:0.00%    MPKI:0.00
PC:163ce     Total:32124      MisBP:0   MisRate:0.00%    MPKI:0.00
PC:163cc     Total:32023      MisBP:0   MisRate:0.00%    MPKI:0.00
PC:1639e     Total:31855      MisBP:0   MisRate:0.00%    MPKI:0.00
PC:163ca     Total:32025      MisBP:0   MisRate:0.00%    MPKI:0.00
PC:18b86     Total:42      MisBP:0   MisRate:0.00%    MPKI:0.00
PC:163c8     Total:32025      MisBP:0   MisRate:0.00%    MPKI:0.00
PC:18b84     Total:42      MisBP:0   MisRate:0.00%    MPKI:0.00
PC:163c6     Total:31975      MisBP:0   MisRate:0.00%    MPKI:0.00
PC:18b82     Total:42      MisBP:0   MisRate:0.00%    MPKI:0.00
PC:163c4     Total:31980      MisBP:0   MisRate:0.00%    MPKI:0.00
PC:18b80     Total:42      MisBP:0   MisRate:0.00%    MPKI:0.00
PC:163c2     Total:31920      MisBP:0   MisRate:0.00%    MPKI:0.00
PC:18b7c     Total:46      MisBP:0   MisRate:0.00%    MPKI:0.00
PC:1635e     Total:31927      MisBP:0   MisRate:0.00%    MPKI:0.00
PC:16378     Total:31823      MisBP:0   MisRate:0.00%    MPKI:0.00
PC:18b32     Total:53      MisBP:0   MisRate:0.00%    MPKI:0.00
PC:16374     Total:31823      MisBP:0   MisRate:0.00%    MPKI:0.00
PC:16370     Total:31823      MisBP:0   MisRate:0.00%    MPKI:0.00
PC:18b2c     Total:53      MisBP:0   MisRate:0.00%    MPKI:0.00
PC:1636e     Total:31823      MisBP:0   MisRate:0.00%    MPKI:0.00
PC:18b28     Total:530      MisBP:0   MisRate:0.00%    MPKI:0.00
PC:1636a     Total:31823      MisBP:0   MisRate:0.00%    MPKI:0.00
PC:16366     Total:31950      MisBP:0   MisRate:0.00%    MPKI:0.00
PC:16364     Total:31950      MisBP:0   MisRate:0.00%    MPKI:0.00
PC:16362     Total:31950      MisBP:0   MisRate:0.00%    MPKI:0.00
PC:18b36     Total:52      MisBP:0   MisRate:0.00%    MPKI:0.00
PC:1635c     Total:31927      MisBP:0   MisRate:0.00%    MPKI:0.00
PC:16358     Total:31927      MisBP:0   MisRate:0.00%    MPKI:0.00
PC:16354     Total:31927      MisBP:0   MisRate:0.00%    MPKI:0.00
PC:16352     Total:31927      MisBP:0   MisRate:0.00%    MPKI:0.00
PC:16350     Total:31940      MisBP:0   MisRate:0.00%    MPKI:0.00
PC:1634e     Total:31883      MisBP:0   MisRate:0.00%    MPKI:0.00
PC:1634c     Total:31883      MisBP:0   MisRate:0.00%    MPKI:0.00
PC:1634a     Total:31883      MisBP:0   MisRate:0.00%    MPKI:0.00
PC:16348     Total:31883      MisBP:0   MisRate:0.00%    MPKI:0.00
PC:16346     Total:31883      MisBP:0   MisRate:0.00%    MPKI:0.00
PC:1638c     Total:31903      MisBP:0   MisRate:0.00%    MPKI:0.00
PC:1639a     Total:31855      MisBP:0   MisRate:0.00%    MPKI:0.00
PC:18b56     Total:10249      MisBP:0   MisRate:0.00%    MPKI:0.00
PC:16398     Total:31856      MisBP:0   MisRate:0.00%    MPKI:0.00
PC:16396     Total:31856      MisBP:0   MisRate:0.00%    MPKI:0.00
PC:18b52     Total:20500      MisBP:0   MisRate:0.00%    MPKI:0.00
PC:16394     Total:31903      MisBP:0   MisRate:0.00%    MPKI:0.00
PC:18b4e     Total:44      MisBP:0   MisRate:0.00%    MPKI:0.00
PC:16390     Total:31903      MisBP:0   MisRate:0.00%    MPKI:0.00
PC:18b4c     Total:44      MisBP:0   MisRate:0.00%    MPKI:0.00
PC:1638e     Total:31903      MisBP:0   MisRate:0.00%    MPKI:0.00
PC:18b4a     Total:44      MisBP:0   MisRate:0.00%    MPKI:0.00
PC:1625c     Total:32074      MisBP:0   MisRate:0.00%    MPKI:0.00
PC:18b46     Total:44      MisBP:0   MisRate:0.00%    MPKI:0.00
PC:16388     Total:31805      MisBP:0   MisRate:0.00%    MPKI:0.00
PC:16384     Total:31805      MisBP:0   MisRate:0.00%    MPKI:0.00
PC:18b40     Total:44      MisBP:0   MisRate:0.00%    MPKI:0.00
PC:16382     Total:31805      MisBP:0   MisRate:0.00%    MPKI:0.00
PC:18b3e     Total:52      MisBP:0   MisRate:0.00%    MPKI:0.00
PC:16380     Total:31804      MisBP:0   MisRate:0.00%    MPKI:0.00
PC:1637e     Total:31873      MisBP:0   MisRate:0.00%    MPKI:0.00
PC:18b3a     Total:52      MisBP:0   MisRate:0.00%    MPKI:0.00
PC:1637c     Total:31823      MisBP:0   MisRate:0.00%    MPKI:0.00
PC:16144     Total:31888      MisBP:0   MisRate:0.00%    MPKI:0.00
PC:111da     Total:24      MisBP:0   MisRate:0.00%    MPKI:0.00
PC:16156     Total:31926      MisBP:0   MisRate:0.00%    MPKI:0.00
PC:16154     Total:31927      MisBP:0   MisRate:0.00%    MPKI:0.00
PC:16150     Total:31927      MisBP:0   MisRate:0.00%    MPKI:0.00
PC:1614e     Total:31930      MisBP:0   MisRate:0.00%    MPKI:0.00
PC:1614c     Total:31929      MisBP:0   MisRate:0.00%    MPKI:0.00
PC:111ce     Total:25      MisBP:0   MisRate:0.00%    MPKI:0.00
PC:1614a     Total:31933      MisBP:0   MisRate:0.00%    MPKI:0.00
PC:16148     Total:31933      MisBP:0   MisRate:0.00%    MPKI:0.00
PC:111ca     Total:53      MisBP:0   MisRate:0.00%    MPKI:0.00
PC:16146     Total:31887      MisBP:0   MisRate:0.00%    MPKI:0.00
PC:1615a     Total:31926      MisBP:0   MisRate:0.00%    MPKI:0.00
PC:16142     Total:31870      MisBP:0   MisRate:0.00%    MPKI:0.00
PC:1613e     Total:31870      MisBP:0   MisRate:0.00%    MPKI:0.00
PC:1613a     Total:31980      MisBP:0   MisRate:0.00%    MPKI:0.00
PC:111bc     Total:82      MisBP:0   MisRate:0.00%    MPKI:0.00
PC:16138     Total:31981      MisBP:0   MisRate:0.00%    MPKI:0.00
PC:16134     Total:31981      MisBP:0   MisRate:0.00%    MPKI:0.00
PC:16132     Total:31981      MisBP:0   MisRate:0.00%    MPKI:0.00
PC:16130     Total:31981      MisBP:0   MisRate:0.00%    MPKI:0.00
PC:1612e     Total:31973      MisBP:0   MisRate:0.00%    MPKI:0.00
PC:1612c     Total:31959      MisBP:0   MisRate:0.00%    MPKI:0.00
PC:1612a     Total:31961      MisBP:0   MisRate:0.00%    MPKI:0.00
PC:1617a     Total:31921      MisBP:0   MisRate:0.00%    MPKI:0.00
PC:1619a     Total:31874      MisBP:0   MisRate:0.00%    MPKI:0.00
PC:16196     Total:31917      MisBP:0   MisRate:0.00%    MPKI:0.00
PC:16194     Total:31917      MisBP:0   MisRate:0.00%    MPKI:0.00
PC:16192     Total:31929      MisBP:0   MisRate:0.00%    MPKI:0.00
PC:1618e     Total:31882      MisBP:0   MisRate:0.00%    MPKI:0.00
PC:1618a     Total:31882      MisBP:0   MisRate:0.00%    MPKI:0.00
PC:16188     Total:31882      MisBP:0   MisRate:0.00%    MPKI:0.00
PC:16186     Total:31876      MisBP:0   MisRate:0.00%    MPKI:0.00
PC:16184     Total:31876      MisBP:0   MisRate:0.00%    MPKI:0.00
PC:16182     Total:31830      MisBP:0   MisRate:0.00%    MPKI:0.00
PC:1617e     Total:31830      MisBP:0   MisRate:0.00%    MPKI:0.00
PC:16128     Total:31963      MisBP:0   MisRate:0.00%    MPKI:0.00
PC:16178     Total:31968      MisBP:0   MisRate:0.00%    MPKI:0.00
PC:16174     Total:31968      MisBP:0   MisRate:0.00%    MPKI:0.00
PC:16170     Total:31968      MisBP:0   MisRate:0.00%    MPKI:0.00
PC:1616c     Total:31968      MisBP:0   MisRate:0.00%    MPKI:0.00
PC:16168     Total:31968      MisBP:0   MisRate:0.00%    MPKI:0.00
PC:16166     Total:31969      MisBP:0   MisRate:0.00%    MPKI:0.00
PC:16164     Total:32016      MisBP:0   MisRate:0.00%    MPKI:0.00
PC:16162     Total:32016      MisBP:0   MisRate:0.00%    MPKI:0.00
PC:16160     Total:32016      MisBP:0   MisRate:0.00%    MPKI:0.00
PC:1615e     Total:31926      MisBP:0   MisRate:0.00%    MPKI:0.00
PC:160d2     Total:31973      MisBP:0   MisRate:0.00%    MPKI:0.00
PC:160ec     Total:32044      MisBP:0   MisRate:0.00%    MPKI:0.00
PC:160ea     Total:32036      MisBP:0   MisRate:0.00%    MPKI:0.00
PC:160e8     Total:32036      MisBP:0   MisRate:0.00%    MPKI:0.00
PC:160e6     Total:31987      MisBP:0   MisRate:0.00%    MPKI:0.00
PC:160e4     Total:32034      MisBP:0   MisRate:0.00%    MPKI:0.00
PC:160e2     Total:31971      MisBP:0   MisRate:0.00%    MPKI:0.00
PC:160de     Total:31971      MisBP:0   MisRate:0.00%    MPKI:0.00
PC:160dc     Total:31971      MisBP:0   MisRate:0.00%    MPKI:0.00
PC:160da     Total:31971      MisBP:0   MisRate:0.00%    MPKI:0.00
PC:160d8     Total:31971      MisBP:0   MisRate:0.00%    MPKI:0.00
PC:160d4     Total:31972      MisBP:0   MisRate:0.00%    MPKI:0.00
PC:160ee     Total:32044      MisBP:0   MisRate:0.00%    MPKI:0.00
PC:160d0     Total:31992      MisBP:0   MisRate:0.00%    MPKI:0.00
PC:160ce     Total:31943      MisBP:0   MisRate:0.00%    MPKI:0.00
PC:160cc     Total:31928      MisBP:0   MisRate:0.00%    MPKI:0.00
PC:160ca     Total:31928      MisBP:0   MisRate:0.00%    MPKI:0.00
PC:160c6     Total:31928      MisBP:0   MisRate:0.00%    MPKI:0.00
PC:160c4     Total:31928      MisBP:0   MisRate:0.00%    MPKI:0.00
PC:160c2     Total:31931      MisBP:0   MisRate:0.00%    MPKI:0.00
PC:160c0     Total:31880      MisBP:0   MisRate:0.00%    MPKI:0.00
PC:160bc     Total:32030      MisBP:0   MisRate:0.00%    MPKI:0.00
PC:160ba     Total:32030      MisBP:0   MisRate:0.00%    MPKI:0.00
PC:1610a     Total:32027      MisBP:0   MisRate:0.00%    MPKI:0.00
PC:16124     Total:31961      MisBP:0   MisRate:0.00%    MPKI:0.00
PC:16122     Total:31965      MisBP:0   MisRate:0.00%    MPKI:0.00
PC:16120     Total:31965      MisBP:0   MisRate:0.00%    MPKI:0.00
PC:111a0     Total:83      MisBP:0   MisRate:0.00%    MPKI:0.00
PC:1611c     Total:31965      MisBP:0   MisRate:0.00%    MPKI:0.00
PC:1119c     Total:83      MisBP:0   MisRate:0.00%    MPKI:0.00
PC:16118     Total:31994      MisBP:0   MisRate:0.00%    MPKI:0.00
PC:16116     Total:32008      MisBP:0   MisRate:0.00%    MPKI:0.00
PC:16112     Total:32010      MisBP:0   MisRate:0.00%    MPKI:0.00
PC:1610e     Total:32010      MisBP:0   MisRate:0.00%    MPKI:0.00
PC:1610c     Total:32013      MisBP:0   MisRate:0.00%    MPKI:0.00
PC:1619c     Total:31874      MisBP:0   MisRate:0.00%    MPKI:0.00
PC:16106     Total:32027      MisBP:0   MisRate:0.00%    MPKI:0.00
PC:16104     Total:32032      MisBP:0   MisRate:0.00%    MPKI:0.00
PC:16102     Total:32046      MisBP:0   MisRate:0.00%    MPKI:0.00
PC:16100     Total:32046      MisBP:0   MisRate:0.00%    MPKI:0.00
PC:160fe     Total:32129      MisBP:0   MisRate:0.00%    MPKI:0.00
PC:160fa     Total:32129      MisBP:0   MisRate:0.00%    MPKI:0.00
PC:160f8     Total:32131      MisBP:0   MisRate:0.00%    MPKI:0.00
PC:160f4     Total:32137      MisBP:0   MisRate:0.00%    MPKI:0.00
PC:160f2     Total:32138      MisBP:0   MisRate:0.00%    MPKI:0.00
PC:160f0     Total:32138      MisBP:0   MisRate:0.00%    MPKI:0.00
PC:111d2     Total:24      MisBP:0   MisRate:0.00%    MPKI:0.00
PC:16228     Total:32045      MisBP:0   MisRate:0.00%    MPKI:0.00
PC:111e6     Total:1      MisBP:0   MisRate:0.00%    MPKI:0.00
PC:16226     Total:32045      MisBP:0   MisRate:0.00%    MPKI:0.00
PC:111e4     Total:1      MisBP:0   MisRate:0.00%    MPKI:0.00
PC:16224     Total:32045      MisBP:0   MisRate:0.00%    MPKI:0.00
PC:16220     Total:31899      MisBP:0   MisRate:0.00%    MPKI:0.00
PC:1621a     Total:31860      MisBP:0   MisRate:0.00%    MPKI:0.00
PC:111d8     Total:24      MisBP:0   MisRate:0.00%    MPKI:0.00
PC:16216     Total:31868      MisBP:0   MisRate:0.00%    MPKI:0.00
PC:111d4     Total:24      MisBP:0   MisRate:0.00%    MPKI:0.00
PC:16214     Total:31868      MisBP:0   MisRate:0.00%    MPKI:0.00
PC:1622a     Total:32037      MisBP:0   MisRate:0.00%    MPKI:0.00
PC:16212     Total:31870      MisBP:0   MisRate:0.00%    MPKI:0.00
PC:111d0     Total:25      MisBP:0   MisRate:0.00%    MPKI:0.00
PC:1620e     Total:31872      MisBP:0   MisRate:0.00%    MPKI:0.00
PC:1620a     Total:31875      MisBP:0   MisRate:0.00%    MPKI:0.00
PC:111c8     Total:53      MisBP:0   MisRate:0.00%    MPKI:0.00
PC:16208     Total:31875      MisBP:0   MisRate:0.00%    MPKI:0.00
PC:111c6     Total:53      MisBP:0   MisRate:0.00%    MPKI:0.00
PC:16204     Total:31877      MisBP:0   MisRate:0.00%    MPKI:0.00
PC:111c2     Total:53      MisBP:0   MisRate:0.00%    MPKI:0.00
PC:16200     Total:31877      MisBP:0   MisRate:0.00%    MPKI:0.00
PC:16242     Total:32052      MisBP:0   MisRate:0.00%    MPKI:0.00
PC:1625a     Total:32074      MisBP:0   MisRate:0.00%    MPKI:0.00
PC:16258     Total:32072      MisBP:0   MisRate:0.00%    MPKI:0.00
PC:16256     Total:32076      MisBP:0   MisRate:0.00%    MPKI:0.00
PC:16254     Total:32081      MisBP:0   MisRate:0.00%    MPKI:0.00
PC:16252     Total:32081      MisBP:0   MisRate:0.00%    MPKI:0.00
PC:16250     Total:32151      MisBP:0   MisRate:0.00%    MPKI:0.00
PC:1624e     Total:32151      MisBP:0   MisRate:0.00%    MPKI:0.00
PC:1624c     Total:32153      MisBP:0   MisRate:0.00%    MPKI:0.00
PC:16248     Total:32153      MisBP:0   MisRate:0.00%    MPKI:0.00
PC:16246     Total:32153      MisBP:0   MisRate:0.00%    MPKI:0.00
PC:16244     Total:32154      MisBP:0   MisRate:0.00%    MPKI:0.00
PC:111be     Total:53      MisBP:0   MisRate:0.00%    MPKI:0.00
PC:16240     Total:32052      MisBP:0   MisRate:0.00%    MPKI:0.00
PC:1623e     Total:32095      MisBP:0   MisRate:0.00%    MPKI:0.00
PC:1623c     Total:32095      MisBP:0   MisRate:0.00%    MPKI:0.00
PC:1623a     Total:32014      MisBP:0   MisRate:0.00%    MPKI:0.00
PC:16238     Total:32014      MisBP:0   MisRate:0.00%    MPKI:0.00
PC:16236     Total:32017      MisBP:0   MisRate:0.00%    MPKI:0.00
PC:16232     Total:32029      MisBP:0   MisRate:0.00%    MPKI:0.00
PC:111f0     Total:24      MisBP:0   MisRate:0.00%    MPKI:0.00
PC:1622c     Total:32035      MisBP:0   MisRate:0.00%    MPKI:0.00
PC:111ea     Total:1      MisBP:0   MisRate:0.00%    MPKI:0.00
PC:161b4     Total:31865      MisBP:0   MisRate:0.00%    MPKI:0.00
PC:11190     Total:588      MisBP:0   MisRate:0.00%    MPKI:0.00
PC:161d0     Total:31825      MisBP:0   MisRate:0.00%    MPKI:0.00
PC:161ce     Total:31826      MisBP:0   MisRate:0.00%    MPKI:0.00
PC:161cc     Total:31829      MisBP:0   MisRate:0.00%    MPKI:0.00
PC:161ca     Total:31831      MisBP:0   MisRate:0.00%    MPKI:0.00
PC:161c8     Total:31785      MisBP:0   MisRate:0.00%    MPKI:0.00
PC:161c4     Total:31785      MisBP:0   MisRate:0.00%    MPKI:0.00
PC:161c0     Total:31785      MisBP:0   MisRate:0.00%    MPKI:0.00
PC:161be     Total:31868      MisBP:0   MisRate:0.00%    MPKI:0.00
PC:161bc     Total:31822      MisBP:0   MisRate:0.00%    MPKI:0.00
PC:161b8     Total:31823      MisBP:0   MisRate:0.00%    MPKI:0.00
PC:161d2     Total:31815      MisBP:0   MisRate:0.00%    MPKI:0.00
PC:161b2     Total:31865      MisBP:0   MisRate:0.00%    MPKI:0.00
PC:161b0     Total:31865      MisBP:0   MisRate:0.00%    MPKI:0.00
PC:161ae     Total:31819      MisBP:0   MisRate:0.00%    MPKI:0.00
PC:161ac     Total:31819      MisBP:0   MisRate:0.00%    MPKI:0.00
PC:161aa     Total:31819      MisBP:0   MisRate:0.00%    MPKI:0.00
PC:161a8     Total:31819      MisBP:0   MisRate:0.00%    MPKI:0.00
PC:161a6     Total:31869      MisBP:0   MisRate:0.00%    MPKI:0.00
PC:161a4     Total:31874      MisBP:0   MisRate:0.00%    MPKI:0.00
PC:161a0     Total:31874      MisBP:0   MisRate:0.00%    MPKI:0.00
PC:1619e     Total:31874      MisBP:0   MisRate:0.00%    MPKI:0.00
PC:161ee     Total:31947      MisBP:0   MisRate:0.00%    MPKI:0.00
PC:161fc     Total:31969      MisBP:0   MisRate:0.00%    MPKI:0.00
PC:161fa     Total:31969      MisBP:0   MisRate:0.00%    MPKI:0.00
PC:111b8     Total:82      MisBP:0   MisRate:0.00%    MPKI:0.00
PC:161f8     Total:31925      MisBP:0   MisRate:0.00%    MPKI:0.00
PC:161f6     Total:31931      MisBP:0   MisRate:0.00%    MPKI:0.00
PC:111b4     Total:82      MisBP:0   MisRate:0.00%    MPKI:0.00
PC:161f4     Total:31931      MisBP:0   MisRate:0.00%    MPKI:0.00
PC:161f2     Total:31935      MisBP:0   MisRate:0.00%    MPKI:0.00
PC:111b0     Total:82      MisBP:0   MisRate:0.00%    MPKI:0.00
PC:161f0     Total:31947      MisBP:0   MisRate:0.00%    MPKI:0.00
PC:111ae     Total:82      MisBP:0   MisRate:0.00%    MPKI:0.00
PC:163dc     Total:32139      MisBP:0   MisRate:0.00%    MPKI:0.00
PC:111ac     Total:82      MisBP:0   MisRate:0.00%    MPKI:0.00
PC:161ea     Total:31879      MisBP:0   MisRate:0.00%    MPKI:0.00
PC:111a8     Total:82      MisBP:0   MisRate:0.00%    MPKI:0.00
PC:161e8     Total:31826      MisBP:0   MisRate:0.00%    MPKI:0.00
PC:111a6     Total:83      MisBP:0   MisRate:0.00%    MPKI:0.00
PC:161e6     Total:31836      MisBP:0   MisRate:0.00%    MPKI:0.00
PC:111a4     Total:83      MisBP:0   MisRate:0.00%    MPKI:0.00
PC:161dc     Total:31837      MisBP:0   MisRate:0.00%    MPKI:0.00
PC:161d8     Total:31832      MisBP:0   MisRate:0.00%    MPKI:0.00
PC:161d4     Total:31842      MisBP:0   MisRate:0.00%    MPKI:0.00
PC:1652e     Total:32126      MisBP:0   MisRate:0.00%    MPKI:0.00
PC:3970a     Total:24      MisBP:0   MisRate:0.00%    MPKI:0.00
PC:18cf6     Total:46984      MisBP:0   MisRate:0.00%    MPKI:0.00
PC:16538     Total:32003      MisBP:0   MisRate:0.00%    MPKI:0.00
PC:39706     Total:24      MisBP:0   MisRate:0.00%    MPKI:0.00
PC:18cf4     Total:47139      MisBP:0   MisRate:0.00%    MPKI:0.00
PC:16536     Total:32124      MisBP:0   MisRate:0.00%    MPKI:0.00
PC:18cf0     Total:47443      MisBP:0   MisRate:0.00%    MPKI:0.00
PC:16532     Total:32124      MisBP:0   MisRate:0.00%    MPKI:0.00
PC:39700     Total:24      MisBP:0   MisRate:0.00%    MPKI:0.00
PC:18cee     Total:47551      MisBP:0   MisRate:0.00%    MPKI:0.00
PC:16530     Total:32125      MisBP:0   MisRate:0.00%    MPKI:0.00
PC:1653c     Total:32003      MisBP:0   MisRate:0.00%    MPKI:0.00
PC:1652a     Total:32126      MisBP:0   MisRate:0.00%    MPKI:0.00
PC:16526     Total:32126      MisBP:0   MisRate:0.00%    MPKI:0.00
PC:18ce2     Total:47869      MisBP:0   MisRate:0.00%    MPKI:0.00
PC:16524     Total:32126      MisBP:0   MisRate:0.00%    MPKI:0.00
PC:16522     Total:32126      MisBP:0   MisRate:0.00%    MPKI:0.00
PC:18cde     Total:47879      MisBP:0   MisRate:0.00%    MPKI:0.00
PC:16520     Total:32169      MisBP:0   MisRate:0.00%    MPKI:0.00
PC:18cdc     Total:47894      MisBP:0   MisRate:0.00%    MPKI:0.00
PC:1651e     Total:32169      MisBP:0   MisRate:0.00%    MPKI:0.00
PC:18cda     Total:47924      MisBP:0   MisRate:0.00%    MPKI:0.00
PC:1651c     Total:32085      MisBP:0   MisRate:0.00%    MPKI:0.00
PC:18d0e     Total:12345      MisBP:0   MisRate:0.00%    MPKI:0.00
PC:39730     Total:25      MisBP:0   MisRate:0.00%    MPKI:0.00
PC:1655e     Total:1      MisBP:0   MisRate:0.00%    MPKI:0.00
PC:3972c     Total:25      MisBP:0   MisRate:0.00%    MPKI:0.00
PC:18d18     Total:12266      MisBP:0   MisRate:0.00%    MPKI:0.00
PC:1655a     Total:1      MisBP:0   MisRate:0.00%    MPKI:0.00
PC:18d14     Total:12331      MisBP:0   MisRate:0.00%    MPKI:0.00
PC:16556     Total:1      MisBP:0   MisRate:0.00%    MPKI:0.00
PC:39724     Total:26      MisBP:0   MisRate:0.00%    MPKI:0.00
PC:18d12     Total:12343      MisBP:0   MisRate:0.00%    MPKI:0.00
PC:16554     Total:1      MisBP:0   MisRate:0.00%    MPKI:0.00
PC:39722     Total:26      MisBP:0   MisRate:0.00%    MPKI:0.00
PC:1651a     Total:32087      MisBP:0   MisRate:0.00%    MPKI:0.00
PC:16550     Total:31921      MisBP:0   MisRate:0.00%    MPKI:0.00
PC:3971e     Total:26      MisBP:0   MisRate:0.00%    MPKI:0.00
PC:1654c     Total:31928      MisBP:0   MisRate:0.00%    MPKI:0.00
PC:3971a     Total:29      MisBP:0   MisRate:0.00%    MPKI:0.00
PC:16548     Total:31928      MisBP:0   MisRate:0.00%    MPKI:0.00
PC:39716     Total:29      MisBP:0   MisRate:0.00%    MPKI:0.00
PC:18d02     Total:12341      MisBP:0   MisRate:0.00%    MPKI:0.00
PC:16544     Total:31928      MisBP:0   MisRate:0.00%    MPKI:0.00
PC:16540     Total:31928      MisBP:0   MisRate:0.00%    MPKI:0.00
PC:18cfa     Total:46355      MisBP:0   MisRate:0.00%    MPKI:0.00
PC:18bea     Total:74700      MisBP:0   MisRate:0.00%    MPKI:0.00
PC:1dc32     Total:2      MisBP:0   MisRate:0.00%    MPKI:0.00
PC:18bf0     Total:12703      MisBP:0   MisRate:0.00%    MPKI:0.00
PC:18cb6     Total:324      MisBP:0   MisRate:0.00%    MPKI:0.00
PC:164f8     Total:32134      MisBP:0   MisRate:0.00%    MPKI:0.00
PC:1dc30     Total:2      MisBP:0   MisRate:0.00%    MPKI:0.00
PC:18bee     Total:12750      MisBP:0   MisRate:0.00%    MPKI:0.00
PC:18cb4     Total:323      MisBP:0   MisRate:0.00%    MPKI:0.00
PC:164f6     Total:32098      MisBP:0   MisRate:0.00%    MPKI:0.00
PC:18cb2     Total:10592      MisBP:0   MisRate:0.00%    MPKI:0.00
PC:164f4     Total:32059      MisBP:0   MisRate:0.00%    MPKI:0.00
PC:1dc2c     Total:4      MisBP:0   MisRate:0.00%    MPKI:0.00
PC:164fa     Total:32125      MisBP:0   MisRate:0.00%    MPKI:0.00
PC:18cb0     Total:10600      MisBP:0   MisRate:0.00%    MPKI:0.00
PC:164f2     Total:32063      MisBP:0   MisRate:0.00%    MPKI:0.00
PC:1dc2a     Total:2      MisBP:0   MisRate:0.00%    MPKI:0.00
PC:18cae     Total:10608      MisBP:0   MisRate:0.00%    MPKI:0.00
PC:164f0     Total:32064      MisBP:0   MisRate:0.00%    MPKI:0.00
PC:18cac     Total:10621      MisBP:0   MisRate:0.00%    MPKI:0.00
PC:164ee     Total:32065      MisBP:0   MisRate:0.00%    MPKI:0.00
PC:1dc26     Total:3      MisBP:0   MisRate:0.00%    MPKI:0.00
PC:164ec     Total:32067      MisBP:0   MisRate:0.00%    MPKI:0.00
PC:1dc24     Total:3      MisBP:0   MisRate:0.00%    MPKI:0.00
PC:18cc8     Total:44966      MisBP:0   MisRate:0.00%    MPKI:0.00
PC:16518     Total:32051      MisBP:0   MisRate:0.00%    MPKI:0.00
PC:18cd4     Total:48343      MisBP:0   MisRate:0.00%    MPKI:0.00
PC:16516     Total:32051      MisBP:0   MisRate:0.00%    MPKI:0.00
PC:18cd2     Total:48457      MisBP:0   MisRate:0.00%    MPKI:0.00
PC:16514     Total:32011      MisBP:0   MisRate:0.00%    MPKI:0.00
PC:16512     Total:32011      MisBP:0   MisRate:0.00%    MPKI:0.00
PC:18cce     Total:44759      MisBP:0   MisRate:0.00%    MPKI:0.00
PC:16510     Total:32048      MisBP:0   MisRate:0.00%    MPKI:0.00
PC:1650e     Total:32048      MisBP:0   MisRate:0.00%    MPKI:0.00
PC:18cca     Total:44850      MisBP:0   MisRate:0.00%    MPKI:0.00
PC:1650c     Total:32057      MisBP:0   MisRate:0.00%    MPKI:0.00
PC:16562     Total:1      MisBP:0   MisRate:0.00%    MPKI:0.00
PC:1650a     Total:32065      MisBP:0   MisRate:0.00%    MPKI:0.00
PC:18cc6     Total:45075      MisBP:0   MisRate:0.00%    MPKI:0.00
PC:16508     Total:32076      MisBP:0   MisRate:0.00%    MPKI:0.00
PC:18cc2     Total:320      MisBP:0   MisRate:0.00%    MPKI:0.00
PC:16504     Total:32038      MisBP:0   MisRate:0.00%    MPKI:0.00
PC:16502     Total:32038      MisBP:0   MisRate:0.00%    MPKI:0.00
PC:18cbe     Total:320      MisBP:0   MisRate:0.00%    MPKI:0.00
PC:16500     Total:32038      MisBP:0   MisRate:0.00%    MPKI:0.00
PC:18cba     Total:324      MisBP:0   MisRate:0.00%    MPKI:0.00
PC:164fc     Total:32114      MisBP:0   MisRate:0.00%    MPKI:0.00
PC:152c4     Total:26      MisBP:0   MisRate:0.00%    MPKI:0.00
PC:152d8     Total:26      MisBP:0   MisRate:0.00%    MPKI:0.00
PC:155ee     Total:31635      MisBP:0   MisRate:0.00%    MPKI:0.00
PC:293dc     Total:58      MisBP:0   MisRate:0.00%    MPKI:0.00
PC:152d4     Total:26      MisBP:0   MisRate:0.00%    MPKI:0.00
PC:293d8     Total:29      MisBP:0   MisRate:0.00%    MPKI:0.00
PC:293d4     Total:29      MisBP:0   MisRate:0.00%    MPKI:0.00
PC:152cc     Total:26      MisBP:0   MisRate:0.00%    MPKI:0.00
PC:155e2     Total:31596      MisBP:0   MisRate:0.00%    MPKI:0.00
PC:152c8     Total:26      MisBP:0   MisRate:0.00%    MPKI:0.00
PC:155de     Total:31596      MisBP:0   MisRate:0.00%    MPKI:0.00
PC:293cc     Total:150      MisBP:0   MisRate:0.00%    MPKI:0.00
PC:293e0     Total:58      MisBP:0   MisRate:0.00%    MPKI:0.00
PC:155da     Total:31596      MisBP:0   MisRate:0.00%    MPKI:0.00
PC:155d6     Total:31566      MisBP:0   MisRate:0.00%    MPKI:0.00
PC:155d2     Total:31568      MisBP:0   MisRate:0.00%    MPKI:0.00
PC:293c0     Total:150      MisBP:0   MisRate:0.00%    MPKI:0.00
PC:155ce     Total:31568      MisBP:0   MisRate:0.00%    MPKI:0.00
PC:293bc     Total:168      MisBP:0   MisRate:0.00%    MPKI:0.00
PC:155ca     Total:31568      MisBP:0   MisRate:0.00%    MPKI:0.00
PC:293b8     Total:168      MisBP:0   MisRate:0.00%    MPKI:0.00
PC:152b0     Total:12      MisBP:0   MisRate:0.00%    MPKI:0.00
PC:293b4     Total:336      MisBP:0   MisRate:0.00%    MPKI:0.00
PC:15606     Total:31673      MisBP:0   MisRate:0.00%    MPKI:0.00
PC:1561a     Total:31776      MisBP:0   MisRate:0.00%    MPKI:0.00
PC:29408     Total:655      MisBP:0   MisRate:0.00%    MPKI:0.00
PC:15300     Total:1990      MisBP:0   MisRate:0.00%    MPKI:0.00
PC:15616     Total:31776      MisBP:0   MisRate:0.00%    MPKI:0.00
PC:152fc     Total:2007      MisBP:0   MisRate:0.00%    MPKI:0.00
PC:15612     Total:31776      MisBP:0   MisRate:0.00%    MPKI:0.00
PC:29400     Total:151      MisBP:0   MisRate:0.00%    MPKI:0.00
PC:152f8     Total:2008      MisBP:0   MisRate:0.00%    MPKI:0.00
PC:293fc     Total:152      MisBP:0   MisRate:0.00%    MPKI:0.00
PC:152f4     Total:2009      MisBP:0   MisRate:0.00%    MPKI:0.00
PC:293f8     Total:152      MisBP:0   MisRate:0.00%    MPKI:0.00
PC:152ac     Total:12      MisBP:0   MisRate:0.00%    MPKI:0.00
PC:293f4     Total:58      MisBP:0   MisRate:0.00%    MPKI:0.00
PC:152ec     Total:348      MisBP:0   MisRate:0.00%    MPKI:0.00
PC:15602     Total:31673      MisBP:0   MisRate:0.00%    MPKI:0.00
PC:293f0     Total:58      MisBP:0   MisRate:0.00%    MPKI:0.00
PC:155fe     Total:31684      MisBP:0   MisRate:0.00%    MPKI:0.00
PC:155fa     Total:31634      MisBP:0   MisRate:0.00%    MPKI:0.00
PC:155f6     Total:31634      MisBP:0   MisRate:0.00%    MPKI:0.00
PC:293e4     Total:29      MisBP:0   MisRate:0.00%    MPKI:0.00
PC:152dc     Total:26      MisBP:0   MisRate:0.00%    MPKI:0.00
PC:155f2     Total:31634      MisBP:0   MisRate:0.00%    MPKI:0.00
PC:18d2a     Total:12080      MisBP:0   MisRate:0.00%    MPKI:0.00
PC:15572     Total:31449      MisBP:0   MisRate:0.00%    MPKI:0.00
PC:1549e     Total:15      MisBP:0   MisRate:0.00%    MPKI:0.00
PC:1549a     Total:15      MisBP:0   MisRate:0.00%    MPKI:0.00
PC:15496     Total:31451      MisBP:0   MisRate:0.00%    MPKI:0.00
PC:15492     Total:31455      MisBP:0   MisRate:0.00%    MPKI:0.00
PC:1548e     Total:31455      MisBP:0   MisRate:0.00%    MPKI:0.00
PC:15486     Total:31455      MisBP:0   MisRate:0.00%    MPKI:0.00
PC:16572     Total:1      MisBP:0   MisRate:0.00%    MPKI:0.00
PC:18d2e     Total:11923      MisBP:0   MisRate:0.00%    MPKI:0.00
PC:16570     Total:1      MisBP:0   MisRate:0.00%    MPKI:0.00
PC:3973e     Total:21      MisBP:0   MisRate:0.00%    MPKI:0.00
PC:1525c     Total:14      MisBP:0   MisRate:0.00%    MPKI:0.00
PC:1656c     Total:1      MisBP:0   MisRate:0.00%    MPKI:0.00
PC:3973a     Total:24      MisBP:0   MisRate:0.00%    MPKI:0.00
PC:1656a     Total:1      MisBP:0   MisRate:0.00%    MPKI:0.00
PC:39738     Total:24      MisBP:0   MisRate:0.00%    MPKI:0.00
PC:18d26     Total:12135      MisBP:0   MisRate:0.00%    MPKI:0.00
PC:16568     Total:1      MisBP:0   MisRate:0.00%    MPKI:0.00
PC:39736     Total:24      MisBP:0   MisRate:0.00%    MPKI:0.00
PC:18d22     Total:12203      MisBP:0   MisRate:0.00%    MPKI:0.00
PC:16564     Total:1      MisBP:0   MisRate:0.00%    MPKI:0.00
PC:39732     Total:25      MisBP:0   MisRate:0.00%    MPKI:0.00
PC:1558a     Total:31446      MisBP:0   MisRate:0.00%    MPKI:0.00
PC:155be     Total:31505      MisBP:0   MisRate:0.00%    MPKI:0.00
PC:155ba     Total:31505      MisBP:0   MisRate:0.00%    MPKI:0.00
PC:155b6     Total:31505      MisBP:0   MisRate:0.00%    MPKI:0.00
PC:155b2     Total:31492      MisBP:0   MisRate:0.00%    MPKI:0.00
PC:155ae     Total:31492      MisBP:0   MisRate:0.00%    MPKI:0.00
PC:155aa     Total:31494      MisBP:0   MisRate:0.00%    MPKI:0.00
PC:155a6     Total:31494      MisBP:0   MisRate:0.00%    MPKI:0.00
PC:1559a     Total:31445      MisBP:0   MisRate:0.00%    MPKI:0.00
PC:15596     Total:31446      MisBP:0   MisRate:0.00%    MPKI:0.00
PC:15592     Total:31446      MisBP:0   MisRate:0.00%    MPKI:0.00
PC:1558e     Total:31446      MisBP:0   MisRate:0.00%    MPKI:0.00
PC:18be2     Total:74782      MisBP:0   MisRate:0.00%    MPKI:0.00
PC:29378     Total:2      MisBP:0   MisRate:0.00%    MPKI:0.00
PC:15270     Total:16      MisBP:0   MisRate:0.00%    MPKI:0.00
PC:29374     Total:2      MisBP:0   MisRate:0.00%    MPKI:0.00
PC:29370     Total:2      MisBP:0   MisRate:0.00%    MPKI:0.00
PC:2936c     Total:2      MisBP:0   MisRate:0.00%    MPKI:0.00
PC:15264     Total:16      MisBP:0   MisRate:0.00%    MPKI:0.00
PC:1557a     Total:31448      MisBP:0   MisRate:0.00%    MPKI:0.00
PC:29368     Total:2      MisBP:0   MisRate:0.00%    MPKI:0.00
PC:15260     Total:14      MisBP:0   MisRate:0.00%    MPKI:0.00
PC:29364     Total:2      MisBP:0   MisRate:0.00%    MPKI:0.00
PC:16436     Total:32460      MisBP:0   MisRate:0.00%    MPKI:0.00
PC:18c04     Total:110      MisBP:0   MisRate:0.00%    MPKI:0.00
PC:16446     Total:32330      MisBP:0   MisRate:0.00%    MPKI:0.00
PC:16442     Total:32334      MisBP:0   MisRate:0.00%    MPKI:0.00
PC:18bfe     Total:110      MisBP:0   MisRate:0.00%    MPKI:0.00
PC:16440     Total:32335      MisBP:0   MisRate:0.00%    MPKI:0.00
PC:18bfc     Total:116      MisBP:0   MisRate:0.00%    MPKI:0.00
PC:1643e     Total:32473      MisBP:0   MisRate:0.00%    MPKI:0.00
PC:1643a     Total:32445      MisBP:0   MisRate:0.00%    MPKI:0.00
PC:18bf6     Total:12655      MisBP:0   MisRate:0.00%    MPKI:0.00
PC:16438     Total:32452      MisBP:0   MisRate:0.00%    MPKI:0.00
PC:18bf4     Total:12671      MisBP:0   MisRate:0.00%    MPKI:0.00
PC:16448     Total:32325      MisBP:0   MisRate:0.00%    MPKI:0.00
PC:16434     Total:32416      MisBP:0   MisRate:0.00%    MPKI:0.00
PC:16432     Total:32435      MisBP:0   MisRate:0.00%    MPKI:0.00
PC:16430     Total:32424      MisBP:0   MisRate:0.00%    MPKI:0.00
PC:1642e     Total:32424      MisBP:0   MisRate:0.00%    MPKI:0.00
PC:1642c     Total:32424      MisBP:0   MisRate:0.00%    MPKI:0.00
PC:1642a     Total:32434      MisBP:0   MisRate:0.00%    MPKI:0.00
PC:16426     Total:32434      MisBP:0   MisRate:0.00%    MPKI:0.00
PC:16424     Total:32439      MisBP:0   MisRate:0.00%    MPKI:0.00
PC:16422     Total:32439      MisBP:0   MisRate:0.00%    MPKI:0.00
PC:16420     Total:32464      MisBP:0   MisRate:0.00%    MPKI:0.00
PC:18bdc     Total:75472      MisBP:0   MisRate:0.00%    MPKI:0.00
PC:18c12     Total:106      MisBP:0   MisRate:0.00%    MPKI:0.00
PC:16462     Total:32152      MisBP:0   MisRate:0.00%    MPKI:0.00
PC:18c1e     Total:13303      MisBP:0   MisRate:0.00%    MPKI:0.00
PC:16460     Total:32158      MisBP:0   MisRate:0.00%    MPKI:0.00
PC:18c1c     Total:13315      MisBP:0   MisRate:0.00%    MPKI:0.00
PC:1645e     Total:32183      MisBP:0   MisRate:0.00%    MPKI:0.00
PC:18c1a     Total:13322      MisBP:0   MisRate:0.00%    MPKI:0.00
PC:1645c     Total:32187      MisBP:0   MisRate:0.00%    MPKI:0.00
PC:18c18     Total:106      MisBP:0   MisRate:0.00%    MPKI:0.00
PC:1645a     Total:32190      MisBP:0   MisRate:0.00%    MPKI:0.00
PC:18c14     Total:106      MisBP:0   MisRate:0.00%    MPKI:0.00
PC:16456     Total:32195      MisBP:0   MisRate:0.00%    MPKI:0.00
PC:1641e     Total:32466      MisBP:0   MisRate:0.00%    MPKI:0.00
PC:16454     Total:32196      MisBP:0   MisRate:0.00%    MPKI:0.00
PC:18c10     Total:106      MisBP:0   MisRate:0.00%    MPKI:0.00
PC:16452     Total:32305      MisBP:0   MisRate:0.00%    MPKI:0.00
PC:18c0c     Total:110      MisBP:0   MisRate:0.00%    MPKI:0.00
PC:1644e     Total:32306      MisBP:0   MisRate:0.00%    MPKI:0.00
PC:18c0a     Total:110      MisBP:0   MisRate:0.00%    MPKI:0.00
PC:1644c     Total:32306      MisBP:0   MisRate:0.00%    MPKI:0.00
PC:18c08     Total:110      MisBP:0   MisRate:0.00%    MPKI:0.00
PC:1644a     Total:32317      MisBP:0   MisRate:0.00%    MPKI:0.00
PC:18c06     Total:110      MisBP:0   MisRate:0.00%    MPKI:0.00
PC:163ec     Total:32450      MisBP:0   MisRate:0.00%    MPKI:0.00
PC:18bb0     Total:12806      MisBP:0   MisRate:0.00%    MPKI:0.00
PC:1dbf2     Total:1013      MisBP:0   MisRate:0.00%    MPKI:0.00
PC:163f2     Total:32449      MisBP:0   MisRate:0.00%    MPKI:0.00
PC:18bae     Total:68      MisBP:0   MisRate:0.00%    MPKI:0.00
PC:1dbf0     Total:1015      MisBP:0   MisRate:0.00%    MPKI:0.00
PC:163f0     Total:32450      MisBP:0   MisRate:0.00%    MPKI:0.00
PC:18bac     Total:68      MisBP:0   MisRate:0.00%    MPKI:0.00
PC:1dbee     Total:2033      MisBP:0   MisRate:0.00%    MPKI:0.00
PC:163ee     Total:32450      MisBP:0   MisRate:0.00%    MPKI:0.00
PC:18baa     Total:69      MisBP:0   MisRate:0.00%    MPKI:0.00
PC:1dbec     Total:4073      MisBP:0   MisRate:0.00%    MPKI:0.00
PC:163f4     Total:32441      MisBP:0   MisRate:0.00%    MPKI:0.00
PC:163ea     Total:32401      MisBP:0   MisRate:0.00%    MPKI:0.00
PC:18ba6     Total:69      MisBP:0   MisRate:0.00%    MPKI:0.00
PC:163e8     Total:32401      MisBP:0   MisRate:0.00%    MPKI:0.00
PC:18ba4     Total:69      MisBP:0   MisRate:0.00%    MPKI:0.00
PC:163e6     Total:32154      MisBP:0   MisRate:0.00%    MPKI:0.00
PC:163e4     Total:32154      MisBP:0   MisRate:0.00%    MPKI:0.00
PC:18ba0     Total:69      MisBP:0   MisRate:0.00%    MPKI:0.00
PC:163e2     Total:32192      MisBP:0   MisRate:0.00%    MPKI:0.00
PC:163e0     Total:32139      MisBP:0   MisRate:0.00%    MPKI:0.00
PC:18b9a     Total:63      MisBP:0   MisRate:0.00%    MPKI:0.00
PC:16406     Total:32435      MisBP:0   MisRate:0.00%    MPKI:0.00
PC:1641c     Total:32466      MisBP:0   MisRate:0.00%    MPKI:0.00
PC:18bd8     Total:76082      MisBP:0   MisRate:0.00%    MPKI:0.00
PC:1641a     Total:32364      MisBP:0   MisRate:0.00%    MPKI:0.00
PC:16416     Total:32429      MisBP:0   MisRate:0.00%    MPKI:0.00
PC:16414     Total:32430      MisBP:0   MisRate:0.00%    MPKI:0.00
PC:16410     Total:32430      MisBP:0   MisRate:0.00%    MPKI:0.00
PC:1640e     Total:32430      MisBP:0   MisRate:0.00%    MPKI:0.00
PC:18bc8     Total:12470      MisBP:0   MisRate:0.00%    MPKI:0.00
PC:1640a     Total:32432      MisBP:0   MisRate:0.00%    MPKI:0.00
PC:18bc4     Total:25012      MisBP:0   MisRate:0.00%    MPKI:0.00
PC:1dc06     Total:4      MisBP:0   MisRate:0.00%    MPKI:0.00
PC:18c20     Total:26626      MisBP:0   MisRate:0.00%    MPKI:0.00
PC:16404     Total:32435      MisBP:0   MisRate:0.00%    MPKI:0.00
PC:16400     Total:32435      MisBP:0   MisRate:0.00%    MPKI:0.00
PC:18bbc     Total:12768      MisBP:0   MisRate:0.00%    MPKI:0.00
PC:163fe     Total:32613      MisBP:0   MisRate:0.00%    MPKI:0.00
PC:18bb8     Total:12773      MisBP:0   MisRate:0.00%    MPKI:0.00
PC:1dbfa     Total:936      MisBP:0   MisRate:0.00%    MPKI:0.00
PC:163fa     Total:32560      MisBP:0   MisRate:0.00%    MPKI:0.00
PC:163f8     Total:32567      MisBP:0   MisRate:0.00%    MPKI:0.00
PC:18bb2     Total:12805      MisBP:0   MisRate:0.00%    MPKI:0.00
PC:1dbf4     Total:1880      MisBP:0   MisRate:0.00%    MPKI:0.00
PC:18c7a     Total:54497      MisBP:0   MisRate:0.00%    MPKI:0.00
PC:1dc0e     Total:3      MisBP:0   MisRate:0.00%    MPKI:0.00
PC:18bcc     Total:12422      MisBP:0   MisRate:0.00%    MPKI:0.00
PC:164d4     Total:32102      MisBP:0   MisRate:0.00%    MPKI:0.00
PC:1dc0c     Total:15      MisBP:0   MisRate:0.00%    MPKI:0.00
PC:18c90     Total:10908      MisBP:0   MisRate:0.00%    MPKI:0.00
PC:164d2     Total:32104      MisBP:0   MisRate:0.00%    MPKI:0.00
PC:18c8e     Total:10932      MisBP:0   MisRate:0.00%    MPKI:0.00
PC:164d0     Total:32180      MisBP:0   MisRate:0.00%    MPKI:0.00
PC:164ca     Total:32180      MisBP:0   MisRate:0.00%    MPKI:0.00
PC:18c82     Total:50898      MisBP:0   MisRate:0.00%    MPKI:0.00
PC:164c4     Total:32062      MisBP:0   MisRate:0.00%    MPKI:0.00
PC:164d6     Total:32088      MisBP:0   MisRate:0.00%    MPKI:0.00
PC:164bc     Total:32111      MisBP:0   MisRate:0.00%    MPKI:0.00
PC:164b0     Total:32111      MisBP:0   MisRate:0.00%    MPKI:0.00
PC:18c6c     Total:54860      MisBP:0   MisRate:0.00%    MPKI:0.00
PC:164ae     Total:32112      MisBP:0   MisRate:0.00%    MPKI:0.00
PC:164ac     Total:32113      MisBP:0   MisRate:0.00%    MPKI:0.00
PC:18c66     Total:54891      MisBP:0   MisRate:0.00%    MPKI:0.00
PC:164a8     Total:32113      MisBP:0   MisRate:0.00%    MPKI:0.00
PC:18c64     Total:54907      MisBP:0   MisRate:0.00%    MPKI:0.00
PC:164a6     Total:32171      MisBP:0   MisRate:0.00%    MPKI:0.00
PC:164a2     Total:32173      MisBP:0   MisRate:0.00%    MPKI:0.00
PC:1dc16     Total:3      MisBP:0   MisRate:0.00%    MPKI:0.00
PC:18ca8     Total:10649      MisBP:0   MisRate:0.00%    MPKI:0.00
PC:164ea     Total:32071      MisBP:0   MisRate:0.00%    MPKI:0.00
PC:1dc22     Total:3      MisBP:0   MisRate:0.00%    MPKI:0.00
PC:18be0     Total:74986      MisBP:0   MisRate:0.00%    MPKI:0.00
PC:164e8     Total:32071      MisBP:0   MisRate:0.00%    MPKI:0.00
PC:164e4     Total:32070      MisBP:0   MisRate:0.00%    MPKI:0.00
PC:1dc1c     Total:6      MisBP:0   MisRate:0.00%    MPKI:0.00
PC:18bda     Total:75537      MisBP:0   MisRate:0.00%    MPKI:0.00
PC:18ca0     Total:10784      MisBP:0   MisRate:0.00%    MPKI:0.00
PC:164e2     Total:32090      MisBP:0   MisRate:0.00%    MPKI:0.00
PC:164de     Total:32090      MisBP:0   MisRate:0.00%    MPKI:0.00
PC:18c5e     Total:56353      MisBP:0   MisRate:0.00%    MPKI:0.00
PC:18bd4     Total:12000      MisBP:0   MisRate:0.00%    MPKI:0.00
PC:18c9a     Total:21710      MisBP:0   MisRate:0.00%    MPKI:0.00
PC:164dc     Total:32090      MisBP:0   MisRate:0.00%    MPKI:0.00
PC:1dc14     Total:3      MisBP:0   MisRate:0.00%    MPKI:0.00
PC:18bd2     Total:12102      MisBP:0   MisRate:0.00%    MPKI:0.00
PC:164da     Total:32090      MisBP:0   MisRate:0.00%    MPKI:0.00
PC:1dc12     Total:6      MisBP:0   MisRate:0.00%    MPKI:0.00
PC:18c96     Total:10864      MisBP:0   MisRate:0.00%    MPKI:0.00
PC:164d8     Total:32088      MisBP:0   MisRate:0.00%    MPKI:0.00
PC:18c94     Total:10871      MisBP:0   MisRate:0.00%    MPKI:0.00
PC:16474     Total:32090      MisBP:0   MisRate:0.00%    MPKI:0.00
PC:16480     Total:32038      MisBP:0   MisRate:0.00%    MPKI:0.00
PC:18c3c     Total:12969      MisBP:0   MisRate:0.00%    MPKI:0.00
PC:1647e     Total:32158      MisBP:0   MisRate:0.00%    MPKI:0.00
PC:18c3a     Total:12990      MisBP:0   MisRate:0.00%    MPKI:0.00
PC:1647c     Total:32122      MisBP:0   MisRate:0.00%    MPKI:0.00
PC:18c38     Total:13005      MisBP:0   MisRate:0.00%    MPKI:0.00
PC:1647a     Total:32134      MisBP:0   MisRate:0.00%    MPKI:0.00
PC:18c36     Total:13008      MisBP:0   MisRate:0.00%    MPKI:0.00
PC:16478     Total:32137      MisBP:0   MisRate:0.00%    MPKI:0.00
PC:16476     Total:32151      MisBP:0   MisRate:0.00%    MPKI:0.00
PC:18c32     Total:13064      MisBP:0   MisRate:0.00%    MPKI:0.00
PC:18c3e     Total:402      MisBP:0   MisRate:0.00%    MPKI:0.00
PC:16472     Total:32091      MisBP:0   MisRate:0.00%    MPKI:0.00
PC:16470     Total:32111      MisBP:0   MisRate:0.00%    MPKI:0.00
PC:18c2c     Total:13170      MisBP:0   MisRate:0.00%    MPKI:0.00
PC:1646e     Total:32113      MisBP:0   MisRate:0.00%    MPKI:0.00
PC:1646c     Total:32118      MisBP:0   MisRate:0.00%    MPKI:0.00
PC:18c28     Total:13296      MisBP:0   MisRate:0.00%    MPKI:0.00
PC:1646a     Total:32119      MisBP:0   MisRate:0.00%    MPKI:0.00
PC:18c24     Total:13313      MisBP:0   MisRate:0.00%    MPKI:0.00
PC:16466     Total:32119      MisBP:0   MisRate:0.00%    MPKI:0.00
PC:16464     Total:32152      MisBP:0   MisRate:0.00%    MPKI:0.00
PC:16492     Total:32153      MisBP:0   MisRate:0.00%    MPKI:0.00
PC:164a0     Total:32173      MisBP:0   MisRate:0.00%    MPKI:0.00
PC:18c5c     Total:56445      MisBP:0   MisRate:0.00%    MPKI:0.00
PC:1649e     Total:32172      MisBP:0   MisRate:0.00%    MPKI:0.00
PC:18c58     Total:47968      MisBP:0   MisRate:0.00%    MPKI:0.00
PC:1649a     Total:32089      MisBP:0   MisRate:0.00%    MPKI:0.00
PC:16498     Total:32089      MisBP:0   MisRate:0.00%    MPKI:0.00
PC:18c54     Total:47974      MisBP:0   MisRate:0.00%    MPKI:0.00
PC:16496     Total:32074      MisBP:0   MisRate:0.00%    MPKI:0.00
PC:18c52     Total:47974      MisBP:0   MisRate:0.00%    MPKI:0.00
PC:16494     Total:32083      MisBP:0   MisRate:0.00%    MPKI:0.00
PC:18c50     Total:47987      MisBP:0   MisRate:0.00%    MPKI:0.00
PC:160b8     Total:32030      MisBP:0   MisRate:0.00%    MPKI:0.00
PC:16490     Total:32158      MisBP:0   MisRate:0.00%    MPKI:0.00
PC:18c4c     Total:386      MisBP:0   MisRate:0.00%    MPKI:0.00
PC:1648e     Total:32077      MisBP:0   MisRate:0.00%    MPKI:0.00
PC:1648c     Total:32078      MisBP:0   MisRate:0.00%    MPKI:0.00
PC:18c48     Total:386      MisBP:0   MisRate:0.00%    MPKI:0.00
PC:1648a     Total:32036      MisBP:0   MisRate:0.00%    MPKI:0.00
PC:18c44     Total:386      MisBP:0   MisRate:0.00%    MPKI:0.00
PC:16486     Total:32037      MisBP:0   MisRate:0.00%    MPKI:0.00
PC:18c40     Total:386      MisBP:0   MisRate:0.00%    MPKI:0.00
PC:16482     Total:32037      MisBP:0   MisRate:0.00%    MPKI:0.00
PC:10174     Total:11      MisBP:0   MisRate:0.00%    MPKI:0.00
PC:151ba     Total:3      MisBP:0   MisRate:0.00%    MPKI:0.00
PC:159b8     Total:31602      MisBP:0   MisRate:0.00%    MPKI:0.00
PC:292c0     Total:12      MisBP:0   MisRate:0.00%    MPKI:0.00
PC:159b6     Total:31602      MisBP:0   MisRate:0.00%    MPKI:0.00
PC:15c5a     Total:32373      MisBP:0   MisRate:0.00%    MPKI:0.00
PC:39710     Total:23      MisBP:0   MisRate:0.00%    MPKI:0.00
PC:14cba     Total:10702      MisBP:0   MisRate:0.00%    MPKI:0.00
PC:124fc     Total:55469      MisBP:0   MisRate:0.00%    MPKI:0.00
PC:15c3a     Total:32559      MisBP:0   MisRate:0.00%    MPKI:0.00
PC:154ce     Total:14      MisBP:0   MisRate:0.00%    MPKI:0.00
PC:292be     Total:14      MisBP:0   MisRate:0.00%    MPKI:0.00
PC:10178     Total:11      MisBP:0   MisRate:0.00%    MPKI:0.00
PC:151b6     Total:3      MisBP:0   MisRate:0.00%    MPKI:0.00
PC:12276     Total:193850      MisBP:0   MisRate:0.00%    MPKI:0.00
PC:159b4     Total:31556      MisBP:0   MisRate:0.00%    MPKI:0.00
PC:154ca     Total:249      MisBP:0   MisRate:0.00%    MPKI:0.00
PC:159b0     Total:31556      MisBP:0   MisRate:0.00%    MPKI:0.00
PC:292b8     Total:15      MisBP:0   MisRate:0.00%    MPKI:0.00
PC:154c6     Total:249      MisBP:0   MisRate:0.00%    MPKI:0.00
PC:1226e     Total:391052      MisBP:0   MisRate:0.00%    MPKI:0.00
PC:159ac     Total:31556      MisBP:0   MisRate:0.00%    MPKI:0.00
PC:292b4     Total:15      MisBP:0   MisRate:0.00%    MPKI:0.00
PC:14a2a     Total:517046      MisBP:0   MisRate:0.00%    MPKI:0.00
PC:159c6     Total:31587      MisBP:0   MisRate:0.00%    MPKI:0.00
PC:1254e     Total:1      MisBP:0   MisRate:0.00%    MPKI:0.00
PC:15c8c     Total:32020      MisBP:0   MisRate:0.00%    MPKI:0.00
PC:3975e     Total:13      MisBP:0   MisRate:0.00%    MPKI:0.00
PC:1254a     Total:1      MisBP:0   MisRate:0.00%    MPKI:0.00
PC:15c88     Total:32020      MisBP:0   MisRate:0.00%    MPKI:0.00
PC:15c68     Total:32323      MisBP:0   MisRate:0.00%    MPKI:0.00
PC:292d4     Total:7      MisBP:0   MisRate:0.00%    MPKI:0.00
PC:151cc     Total:3      MisBP:0   MisRate:0.00%    MPKI:0.00
PC:159ca     Total:31633      MisBP:0   MisRate:0.00%    MPKI:0.00
PC:292d0     Total:11      MisBP:0   MisRate:0.00%    MPKI:0.00
PC:151c8     Total:3      MisBP:0   MisRate:0.00%    MPKI:0.00
PC:1226c     Total:196195      MisBP:0   MisRate:0.00%    MPKI:0.00
PC:154da     Total:15      MisBP:0   MisRate:0.00%    MPKI:0.00
PC:159c0     Total:31587      MisBP:0   MisRate:0.00%    MPKI:0.00
PC:154d6     Total:15      MisBP:0   MisRate:0.00%    MPKI:0.00
PC:292c6     Total:12      MisBP:0   MisRate:0.00%    MPKI:0.00
PC:1017c     Total:11      MisBP:0   MisRate:0.00%    MPKI:0.00
PC:151be     Total:3      MisBP:0   MisRate:0.00%    MPKI:0.00
PC:292c4     Total:12      MisBP:0   MisRate:0.00%    MPKI:0.00
PC:159ba     Total:31602      MisBP:0   MisRate:0.00%    MPKI:0.00
PC:154d2     Total:14      MisBP:0   MisRate:0.00%    MPKI:0.00
PC:292c2     Total:12      MisBP:0   MisRate:0.00%    MPKI:0.00
PC:10154     Total:178      MisBP:0   MisRate:0.00%    MPKI:0.00
PC:292a6     Total:20      MisBP:0   MisRate:0.00%    MPKI:0.00
PC:1519e     Total:7      MisBP:0   MisRate:0.00%    MPKI:0.00
PC:1015c     Total:11      MisBP:0   MisRate:0.00%    MPKI:0.00
PC:1225e     Total:118796      MisBP:0   MisRate:0.00%    MPKI:0.00
PC:292a2     Total:20      MisBP:0   MisRate:0.00%    MPKI:0.00
PC:1519a     Total:7      MisBP:0   MisRate:0.00%    MPKI:0.00
PC:1225a     Total:118578      MisBP:0   MisRate:0.00%    MPKI:0.00
PC:15998     Total:31462      MisBP:0   MisRate:0.00%    MPKI:0.00
PC:292a0     Total:20      MisBP:0   MisRate:0.00%    MPKI:0.00
PC:15198     Total:7      MisBP:0   MisRate:0.00%    MPKI:0.00
PC:2929e     Total:20      MisBP:0   MisRate:0.00%    MPKI:0.00
PC:1599e     Total:31462      MisBP:0   MisRate:0.00%    MPKI:0.00
PC:12256     Total:119864      MisBP:0   MisRate:0.00%    MPKI:0.00
PC:15994     Total:31466      MisBP:0   MisRate:0.00%    MPKI:0.00
PC:12252     Total:119866      MisBP:0   MisRate:0.00%    MPKI:0.00
PC:15990     Total:31466      MisBP:0   MisRate:0.00%    MPKI:0.00
PC:29298     Total:21      MisBP:0   MisRate:0.00%    MPKI:0.00
PC:15190     Total:9      MisBP:0   MisRate:0.00%    MPKI:0.00
PC:1598e     Total:31466      MisBP:0   MisRate:0.00%    MPKI:0.00
PC:154a6     Total:15      MisBP:0   MisRate:0.00%    MPKI:0.00
PC:29296     Total:21      MisBP:0   MisRate:0.00%    MPKI:0.00
PC:1224e     Total:578532      MisBP:0   MisRate:0.00%    MPKI:0.00
PC:12264     Total:117380      MisBP:0   MisRate:0.00%    MPKI:0.00
PC:190e8     Total:6      MisBP:0   MisRate:0.00%    MPKI:0.00
PC:140a6     Total:119      MisBP:0   MisRate:0.00%    MPKI:0.00
PC:159aa     Total:31561      MisBP:0   MisRate:0.00%    MPKI:0.00
PC:159a8     Total:31561      MisBP:0   MisRate:0.00%    MPKI:0.00
PC:292ae     Total:19      MisBP:0   MisRate:0.00%    MPKI:0.00
PC:151a6     Total:7      MisBP:0   MisRate:0.00%    MPKI:0.00
PC:10164     Total:11      MisBP:0   MisRate:0.00%    MPKI:0.00
PC:29794     Total:13      MisBP:0   MisRate:0.00%    MPKI:0.00
PC:159a4     Total:31462      MisBP:0   MisRate:0.00%    MPKI:0.00
PC:292ac     Total:20      MisBP:0   MisRate:0.00%    MPKI:0.00
PC:14a22     Total:517230      MisBP:0   MisRate:0.00%    MPKI:0.00
PC:14d0c     Total:10299      MisBP:0   MisRate:0.00%    MPKI:0.00
PC:154ba     Total:262      MisBP:0   MisRate:0.00%    MPKI:0.00
PC:292aa     Total:20      MisBP:0   MisRate:0.00%    MPKI:0.00
PC:151a2     Total:7      MisBP:0   MisRate:0.00%    MPKI:0.00
PC:10160     Total:11      MisBP:0   MisRate:0.00%    MPKI:0.00
PC:29790     Total:13      MisBP:0   MisRate:0.00%    MPKI:0.00
PC:159a0     Total:31462      MisBP:0   MisRate:0.00%    MPKI:0.00
PC:292a8     Total:20      MisBP:0   MisRate:0.00%    MPKI:0.00
PC:12260     Total:117416      MisBP:0   MisRate:0.00%    MPKI:0.00
PC:190dc     Total:6      MisBP:0   MisRate:0.00%    MPKI:0.00
PC:1409a     Total:122      MisBP:0   MisRate:0.00%    MPKI:0.00
PC:15dbc     Total:31997      MisBP:0   MisRate:0.00%    MPKI:0.00
PC:15dd6     Total:31969      MisBP:0   MisRate:0.00%    MPKI:0.00
PC:15dd4     Total:31969      MisBP:0   MisRate:0.00%    MPKI:0.00
PC:15dd2     Total:31934      MisBP:0   MisRate:0.00%    MPKI:0.00
PC:15dce     Total:31934      MisBP:0   MisRate:0.00%    MPKI:0.00
PC:15dca     Total:31935      MisBP:0   MisRate:0.00%    MPKI:0.00
PC:15dc8     Total:31935      MisBP:0   MisRate:0.00%    MPKI:0.00
PC:15dc6     Total:31935      MisBP:0   MisRate:0.00%    MPKI:0.00
PC:15dc4     Total:31889      MisBP:0   MisRate:0.00%    MPKI:0.00
PC:15dc2     Total:31889      MisBP:0   MisRate:0.00%    MPKI:0.00
PC:15dc0     Total:31889      MisBP:0   MisRate:0.00%    MPKI:0.00
PC:15dbe     Total:31997      MisBP:0   MisRate:0.00%    MPKI:0.00
PC:15dda     Total:31969      MisBP:0   MisRate:0.00%    MPKI:0.00
PC:15dba     Total:31997      MisBP:0   MisRate:0.00%    MPKI:0.00
PC:15db4     Total:32022      MisBP:0   MisRate:0.00%    MPKI:0.00
PC:15da4     Total:31939      MisBP:0   MisRate:0.00%    MPKI:0.00
PC:15d7e     Total:31978      MisBP:0   MisRate:0.00%    MPKI:0.00
PC:15d72     Total:32063      MisBP:0   MisRate:0.00%    MPKI:0.00
PC:15d6c     Total:32063      MisBP:0   MisRate:0.00%    MPKI:0.00
PC:15d66     Total:31968      MisBP:0   MisRate:0.00%    MPKI:0.00
PC:15d5c     Total:31919      MisBP:0   MisRate:0.00%    MPKI:0.00
PC:15d58     Total:31919      MisBP:0   MisRate:0.00%    MPKI:0.00
PC:15d4a     Total:31976      MisBP:0   MisRate:0.00%    MPKI:0.00
PC:15df2     Total:32184      MisBP:0   MisRate:0.00%    MPKI:0.00
PC:15e0c     Total:32311      MisBP:0   MisRate:0.00%    MPKI:0.00
PC:15e0a     Total:32333      MisBP:0   MisRate:0.00%    MPKI:0.00
PC:15e08     Total:32333      MisBP:0   MisRate:0.00%    MPKI:0.00
PC:15e06     Total:32286      MisBP:0   MisRate:0.00%    MPKI:0.00
PC:15e04     Total:32286      MisBP:0   MisRate:0.00%    MPKI:0.00
PC:15e02     Total:32095      MisBP:0   MisRate:0.00%    MPKI:0.00
PC:15e00     Total:32095      MisBP:0   MisRate:0.00%    MPKI:0.00
PC:15dfe     Total:32199      MisBP:0   MisRate:0.00%    MPKI:0.00
PC:15dfc     Total:32154      MisBP:0   MisRate:0.00%    MPKI:0.00
PC:15df8     Total:32184      MisBP:0   MisRate:0.00%    MPKI:0.00
PC:15df6     Total:32184      MisBP:0   MisRate:0.00%    MPKI:0.00
PC:15d46     Total:31977      MisBP:0   MisRate:0.00%    MPKI:0.00
PC:15df0     Total:32186      MisBP:0   MisRate:0.00%    MPKI:0.00
PC:15dee     Total:32155      MisBP:0   MisRate:0.00%    MPKI:0.00
PC:15dec     Total:32155      MisBP:0   MisRate:0.00%    MPKI:0.00
PC:15dea     Total:32155      MisBP:0   MisRate:0.00%    MPKI:0.00
PC:15de8     Total:32064      MisBP:0   MisRate:0.00%    MPKI:0.00
PC:15de6     Total:32107      MisBP:0   MisRate:0.00%    MPKI:0.00
PC:15de4     Total:32107      MisBP:0   MisRate:0.00%    MPKI:0.00
PC:15de2     Total:32016      MisBP:0   MisRate:0.00%    MPKI:0.00
PC:15de0     Total:32016      MisBP:0   MisRate:0.00%    MPKI:0.00
PC:15dde     Total:31969      MisBP:0   MisRate:0.00%    MPKI:0.00
PC:125e8     Total:8      MisBP:0   MisRate:0.00%    MPKI:0.00
PC:39746     Total:20      MisBP:0   MisRate:0.00%    MPKI:0.00
PC:14cee     Total:10603      MisBP:0   MisRate:0.00%    MPKI:0.00
PC:12530     Total:8      MisBP:0   MisRate:0.00%    MPKI:0.00
PC:39744     Total:20      MisBP:0   MisRate:0.00%    MPKI:0.00
PC:15c6e     Total:32332      MisBP:0   MisRate:0.00%    MPKI:0.00
PC:1252e     Total:8      MisBP:0   MisRate:0.00%    MPKI:0.00
PC:39742     Total:20      MisBP:0   MisRate:0.00%    MPKI:0.00
PC:15c6c     Total:32332      MisBP:0   MisRate:0.00%    MPKI:0.00
PC:125f2     Total:914444      MisBP:0   MisRate:0.00%    MPKI:0.00
PC:397fc     Total:11      MisBP:0   MisRate:0.00%    MPKI:0.00
PC:14da6     Total:10599      MisBP:0   MisRate:0.00%    MPKI:0.00
PC:12532     Total:8      MisBP:0   MisRate:0.00%    MPKI:0.00
PC:125e4     Total:9      MisBP:0   MisRate:0.00%    MPKI:0.00
PC:12560     Total:1      MisBP:0   MisRate:0.00%    MPKI:0.00
PC:15c9e     Total:31957      MisBP:0   MisRate:0.00%    MPKI:0.00
PC:14d18     Total:10343      MisBP:0   MisRate:0.00%    MPKI:0.00
PC:1255a     Total:1      MisBP:0   MisRate:0.00%    MPKI:0.00
PC:15c98     Total:31958      MisBP:0   MisRate:0.00%    MPKI:0.00
PC:3976a     Total:12      MisBP:0   MisRate:0.00%    MPKI:0.00
PC:14d14     Total:10297      MisBP:0   MisRate:0.00%    MPKI:0.00
PC:12556     Total:1      MisBP:0   MisRate:0.00%    MPKI:0.00
PC:39762     Total:13      MisBP:0   MisRate:0.00%    MPKI:0.00
PC:14cf8     Total:10602      MisBP:0   MisRate:0.00%    MPKI:0.00
PC:15d40     Total:31929      MisBP:0   MisRate:0.00%    MPKI:0.00
PC:15d36     Total:31950      MisBP:0   MisRate:0.00%    MPKI:0.00
PC:15d2e     Total:31950      MisBP:0   MisRate:0.00%    MPKI:0.00
PC:15d1a     Total:31989      MisBP:0   MisRate:0.00%    MPKI:0.00
PC:14a82     Total:3      MisBP:0   MisRate:0.00%    MPKI:0.00
PC:15cec     Total:31952      MisBP:0   MisRate:0.00%    MPKI:0.00
PC:15ce8     Total:31886      MisBP:0   MisRate:0.00%    MPKI:0.00
PC:14a72     Total:570530      MisBP:0   MisRate:0.00%    MPKI:0.00
PC:15cdc     Total:31941      MisBP:0   MisRate:0.00%    MPKI:0.00
PC:397a4     Total:7      MisBP:0   MisRate:0.00%    MPKI:0.00
PC:15cce     Total:31913      MisBP:0   MisRate:0.00%    MPKI:0.00
PC:29294     Total:21      MisBP:0   MisRate:0.00%    MPKI:0.00
PC:3974e     Total:10      MisBP:0   MisRate:0.00%    MPKI:0.00
PC:15c78     Total:32175      MisBP:0   MisRate:0.00%    MPKI:0.00
PC:14cf6     Total:10602      MisBP:0   MisRate:0.00%    MPKI:0.00
PC:12538     Total:8      MisBP:0   MisRate:0.00%    MPKI:0.00
PC:15c76     Total:32175      MisBP:0   MisRate:0.00%    MPKI:0.00
PC:14cf2     Total:10602      MisBP:0   MisRate:0.00%    MPKI:0.00
PC:12534     Total:8      MisBP:0   MisRate:0.00%    MPKI:0.00
PC:39748     Total:20      MisBP:0   MisRate:0.00%    MPKI:0.00
PC:15c72     Total:32332      MisBP:0   MisRate:0.00%    MPKI:0.00
PC:14cf0     Total:10602      MisBP:0   MisRate:0.00%    MPKI:0.00
PC:15958     Total:31493      MisBP:0   MisRate:0.00%    MPKI:0.00
PC:29274     Total:54      MisBP:0   MisRate:0.00%    MPKI:0.00
PC:1516c     Total:16      MisBP:0   MisRate:0.00%    MPKI:0.00
PC:1596a     Total:31489      MisBP:0   MisRate:0.00%    MPKI:0.00
PC:12228     Total:267      MisBP:0   MisRate:0.00%    MPKI:0.00
PC:15966     Total:31489      MisBP:0   MisRate:0.00%    MPKI:0.00
PC:12220     Total:547      MisBP:0   MisRate:0.00%    MPKI:0.00
PC:1221e     Total:547      MisBP:0   MisRate:0.00%    MPKI:0.00
PC:29264     Total:27      MisBP:0   MisRate:0.00%    MPKI:0.00
PC:1515c     Total:46      MisBP:0   MisRate:0.00%    MPKI:0.00
PC:1221a     Total:826279      MisBP:0   MisRate:0.00%    MPKI:0.00
PC:29748     Total:136      MisBP:0   MisRate:0.00%    MPKI:0.00
PC:1222c     Total:266      MisBP:0   MisRate:0.00%    MPKI:0.00
PC:12216     Total:826286      MisBP:0   MisRate:0.00%    MPKI:0.00
PC:15954     Total:31493      MisBP:0   MisRate:0.00%    MPKI:0.00
PC:12214     Total:826293      MisBP:0   MisRate:0.00%    MPKI:0.00
PC:12210     Total:826303      MisBP:0   MisRate:0.00%    MPKI:0.00
PC:1220e     Total:826447      MisBP:0   MisRate:0.00%    MPKI:0.00
PC:29256     Total:43      MisBP:0   MisRate:0.00%    MPKI:0.00
PC:1514e     Total:49      MisBP:0   MisRate:0.00%    MPKI:0.00
PC:1594c     Total:31493      MisBP:0   MisRate:0.00%    MPKI:0.00
PC:190d4     Total:1      MisBP:0   MisRate:0.00%    MPKI:0.00
PC:1220a     Total:826466      MisBP:0   MisRate:0.00%    MPKI:0.00
PC:15948     Total:31493      MisBP:0   MisRate:0.00%    MPKI:0.00
PC:14cfc     Total:10655      MisBP:0   MisRate:0.00%    MPKI:0.00
PC:15c86     Total:32024      MisBP:0   MisRate:0.00%    MPKI:0.00
PC:12544     Total:1      MisBP:0   MisRate:0.00%    MPKI:0.00
PC:39758     Total:10      MisBP:0   MisRate:0.00%    MPKI:0.00
PC:15c82     Total:32054      MisBP:0   MisRate:0.00%    MPKI:0.00
PC:14d00     Total:10247      MisBP:0   MisRate:0.00%    MPKI:0.00
PC:12542     Total:1      MisBP:0   MisRate:0.00%    MPKI:0.00
PC:15c80     Total:32055      MisBP:0   MisRate:0.00%    MPKI:0.00
PC:14cfe     Total:10654      MisBP:0   MisRate:0.00%    MPKI:0.00
PC:12540     Total:931      MisBP:0   MisRate:0.00%    MPKI:0.00
PC:39754     Total:10      MisBP:0   MisRate:0.00%    MPKI:0.00
PC:15c7e     Total:32174      MisBP:0   MisRate:0.00%    MPKI:0.00
PC:12208     Total:826490      MisBP:0   MisRate:0.00%    MPKI:0.00
PC:1253e     Total:952      MisBP:0   MisRate:0.00%    MPKI:0.00
PC:39752     Total:10      MisBP:0   MisRate:0.00%    MPKI:0.00
PC:15c7c     Total:32175      MisBP:0   MisRate:0.00%    MPKI:0.00
PC:2927c     Total:23      MisBP:0   MisRate:0.00%    MPKI:0.00
PC:15174     Total:16      MisBP:0   MisRate:0.00%    MPKI:0.00
PC:12234     Total:113567      MisBP:0   MisRate:0.00%    MPKI:0.00
PC:15972     Total:31486      MisBP:0   MisRate:0.00%    MPKI:0.00
PC:12230     Total:3      MisBP:0   MisRate:0.00%    MPKI:0.00
PC:29278     Total:25      MisBP:0   MisRate:0.00%    MPKI:0.00
PC:15170     Total:16      MisBP:0   MisRate:0.00%    MPKI:0.00
PC:121d4     Total:1201      MisBP:0   MisRate:0.00%    MPKI:0.00
PC:19062     Total:7      MisBP:0   MisRate:0.00%    MPKI:0.00
PC:121e4     Total:333      MisBP:0   MisRate:0.00%    MPKI:0.00
PC:121e2     Total:334      MisBP:0   MisRate:0.00%    MPKI:0.00
PC:1905e     Total:7      MisBP:0   MisRate:0.00%    MPKI:0.00
PC:121e0     Total:334      MisBP:0   MisRate:0.00%    MPKI:0.00
PC:1689e     Total:3      MisBP:0   MisRate:0.00%    MPKI:0.00
PC:1905c     Total:7      MisBP:0   MisRate:0.00%    MPKI:0.00
PC:19058     Total:7      MisBP:0   MisRate:0.00%    MPKI:0.00
PC:121da     Total:1192      MisBP:0   MisRate:0.00%    MPKI:0.00
PC:121d8     Total:1193      MisBP:0   MisRate:0.00%    MPKI:0.00
PC:19054     Total:7      MisBP:0   MisRate:0.00%    MPKI:0.00
PC:168a4     Total:3      MisBP:0   MisRate:0.00%    MPKI:0.00
PC:121d0     Total:1204      MisBP:0   MisRate:0.00%    MPKI:0.00
PC:140d0     Total:172      MisBP:0   MisRate:0.00%    MPKI:0.00
PC:19112     Total:6      MisBP:0   MisRate:0.00%    MPKI:0.00
PC:1688e     Total:67      MisBP:0   MisRate:0.00%    MPKI:0.00
PC:1904c     Total:7      MisBP:0   MisRate:0.00%    MPKI:0.00
PC:121ce     Total:1206      MisBP:0   MisRate:0.00%    MPKI:0.00
PC:121ca     Total:1211      MisBP:0   MisRate:0.00%    MPKI:0.00
PC:121c8     Total:1212      MisBP:0   MisRate:0.00%    MPKI:0.00
PC:16886     Total:67      MisBP:0   MisRate:0.00%    MPKI:0.00
PC:19044     Total:7      MisBP:0   MisRate:0.00%    MPKI:0.00
PC:121f4     Total:1038      MisBP:0   MisRate:0.00%    MPKI:0.00
PC:12206     Total:826494      MisBP:0   MisRate:0.00%    MPKI:0.00
PC:15944     Total:31493      MisBP:0   MisRate:0.00%    MPKI:0.00
PC:12202     Total:826504      MisBP:0   MisRate:0.00%    MPKI:0.00
PC:121fe     Total:1653039      MisBP:0   MisRate:0.00%    MPKI:0.00
PC:121fa     Total:1028      MisBP:0   MisRate:0.00%    MPKI:0.00
PC:121f8     Total:1036      MisBP:0   MisRate:0.00%    MPKI:0.00
PC:29240     Total:426      MisBP:0   MisRate:0.00%    MPKI:0.00
PC:168b6     Total:1      MisBP:0   MisRate:0.00%    MPKI:0.00
PC:19074     Total:3      MisBP:0   MisRate:0.00%    MPKI:0.00
PC:121f6     Total:1037      MisBP:0   MisRate:0.00%    MPKI:0.00
PC:19072     Total:3      MisBP:0   MisRate:0.00%    MPKI:0.00
PC:3975c     Total:13      MisBP:0   MisRate:0.00%    MPKI:0.00
PC:121f2     Total:1038      MisBP:0   MisRate:0.00%    MPKI:0.00
PC:1906e     Total:7      MisBP:0   MisRate:0.00%    MPKI:0.00
PC:168ae     Total:1      MisBP:0   MisRate:0.00%    MPKI:0.00
PC:1906c     Total:7      MisBP:0   MisRate:0.00%    MPKI:0.00
PC:121ee     Total:1149      MisBP:0   MisRate:0.00%    MPKI:0.00
PC:121ec     Total:329      MisBP:0   MisRate:0.00%    MPKI:0.00
PC:168aa     Total:2      MisBP:0   MisRate:0.00%    MPKI:0.00
PC:19068     Total:7      MisBP:0   MisRate:0.00%    MPKI:0.00
PC:121ea     Total:332      MisBP:0   MisRate:0.00%    MPKI:0.00
PC:121e6     Total:333      MisBP:0   MisRate:0.00%    MPKI:0.00
PC:15e28     Total:32330      MisBP:0   MisRate:0.00%    MPKI:0.00
PC:13108     Total:470226      MisBP:0   MisRate:0.00%    MPKI:0.00
PC:11e58     Total:419      MisBP:0   MisRate:0.00%    MPKI:0.00
PC:292e4     Total:210      MisBP:0   MisRate:0.00%    MPKI:0.00
PC:151dc     Total:44      MisBP:0   MisRate:0.00%    MPKI:0.00
PC:159da     Total:31629      MisBP:0   MisRate:0.00%    MPKI:0.00
PC:11e56     Total:419      MisBP:0   MisRate:0.00%    MPKI:0.00
PC:15e2c     Total:32298      MisBP:0   MisRate:0.00%    MPKI:0.00
PC:362d2     Total:2      MisBP:0   MisRate:0.00%    MPKI:0.00
PC:13104     Total:470231      MisBP:0   MisRate:0.00%    MPKI:0.00
PC:11e54     Total:419      MisBP:0   MisRate:0.00%    MPKI:0.00
PC:11e52     Total:420      MisBP:0   MisRate:0.00%    MPKI:0.00
PC:362d6     Total:2      MisBP:0   MisRate:0.00%    MPKI:0.00
PC:362ce     Total:26      MisBP:0   MisRate:0.00%    MPKI:0.00
PC:13100     Total:470233      MisBP:0   MisRate:0.00%    MPKI:0.00
PC:11e50     Total:426      MisBP:0   MisRate:0.00%    MPKI:0.00
PC:11e4e     Total:426      MisBP:0   MisRate:0.00%    MPKI:0.00
PC:11e4c     Total:428      MisBP:0   MisRate:0.00%    MPKI:0.00
PC:11e4a     Total:428      MisBP:0   MisRate:0.00%    MPKI:0.00
PC:154e6     Total:60      MisBP:0   MisRate:0.00%    MPKI:0.00
PC:159cc     Total:31633      MisBP:0   MisRate:0.00%    MPKI:0.00
PC:11e48     Total:429      MisBP:0   MisRate:0.00%    MPKI:0.00
PC:154e2     Total:60      MisBP:0   MisRate:0.00%    MPKI:0.00
PC:1517c     Total:16      MisBP:0   MisRate:0.00%    MPKI:0.00
PC:1518c     Total:9      MisBP:0   MisRate:0.00%    MPKI:0.00
PC:1224c     Total:581527      MisBP:0   MisRate:0.00%    MPKI:0.00
PC:1598a     Total:31466      MisBP:0   MisRate:0.00%    MPKI:0.00
PC:29290     Total:21      MisBP:0   MisRate:0.00%    MPKI:0.00
PC:15188     Total:9      MisBP:0   MisRate:0.00%    MPKI:0.00
PC:2928c     Total:21      MisBP:0   MisRate:0.00%    MPKI:0.00
PC:15982     Total:31466      MisBP:0   MisRate:0.00%    MPKI:0.00
PC:29288     Total:21      MisBP:0   MisRate:0.00%    MPKI:0.00
PC:15180     Total:9      MisBP:0   MisRate:0.00%    MPKI:0.00
PC:1597e     Total:31466      MisBP:0   MisRate:0.00%    MPKI:0.00
PC:29284     Total:21      MisBP:0   MisRate:0.00%    MPKI:0.00
PC:292d2     Total:10      MisBP:0   MisRate:0.00%    MPKI:0.00
PC:1223c     Total:113562      MisBP:0   MisRate:0.00%    MPKI:0.00
PC:1597a     Total:31486      MisBP:0   MisRate:0.00%    MPKI:0.00
PC:29280     Total:21      MisBP:0   MisRate:0.00%    MPKI:0.00
PC:15178     Total:16      MisBP:0   MisRate:0.00%    MPKI:0.00
PC:12238     Total:113563      MisBP:0   MisRate:0.00%    MPKI:0.00
PC:15976     Total:31486      MisBP:0   MisRate:0.00%    MPKI:0.00
PC:15db6     Total:32022      MisBP:0   MisRate:0.00%    MPKI:0.00
PC:3625c     Total:111      MisBP:0   MisRate:0.00%    MPKI:0.00
PC:1308e     Total:26466      MisBP:0   MisRate:0.00%    MPKI:0.00
PC:15e30     Total:32295      MisBP:0   MisRate:0.00%    MPKI:0.00
PC:14a30     Total:284018      MisBP:0   MisRate:0.00%    MPKI:0.00
PC:1227a     Total:191090      MisBP:0   MisRate:0.00%    MPKI:0.00
PC:14a38     Total:286206      MisBP:0   MisRate:0.00%    MPKI:0.00
PC:15ca2     Total:31957      MisBP:0   MisRate:0.00%    MPKI:0.00
PC:14d20     Total:10343      MisBP:0   MisRate:0.00%    MPKI:0.00
PC:12562     Total:1      MisBP:0   MisRate:0.00%    MPKI:0.00
PC:12278     Total:193768      MisBP:0   MisRate:0.00%    MPKI:0.00
PC:14a36     Total:286255      MisBP:0   MisRate:0.00%    MPKI:0.00
PC:15ca0     Total:31957      MisBP:0   MisRate:0.00%    MPKI:0.00
PC:14d1a     Total:10343      MisBP:0   MisRate:0.00%    MPKI:0.00
PC:1255c     Total:1      MisBP:0   MisRate:0.00%    MPKI:0.00
PC:12272     Total:194693      MisBP:0   MisRate:0.00%    MPKI:0.00
PC:12564     Total:1      MisBP:0   MisRate:0.00%    MPKI:0.00
PC:14d12     Total:10297      MisBP:0   MisRate:0.00%    MPKI:0.00
PC:12554     Total:1      MisBP:0   MisRate:0.00%    MPKI:0.00
PC:1226a     Total:195846      MisBP:0   MisRate:0.00%    MPKI:0.00
PC:14a28     Total:517119      MisBP:0   MisRate:0.00%    MPKI:0.00
PC:15c92     Total:31980      MisBP:0   MisRate:0.00%    MPKI:0.00
PC:14d0e     Total:10299      MisBP:0   MisRate:0.00%    MPKI:0.00
PC:12550     Total:1      MisBP:0   MisRate:0.00%    MPKI:0.00
PC:15c8e     Total:32020      MisBP:0   MisRate:0.00%    MPKI:0.00
PC:14d06     Total:10247      MisBP:0   MisRate:0.00%    MPKI:0.00
PC:12548     Total:1      MisBP:0   MisRate:0.00%    MPKI:0.00
PC:292cc     Total:11      MisBP:0   MisRate:0.00%    MPKI:0.00
PC:10188     Total:10      MisBP:0   MisRate:0.00%    MPKI:0.00
PC:151ca     Total:3      MisBP:0   MisRate:0.00%    MPKI:0.00
PC:297b8     Total:26      MisBP:0   MisRate:0.00%    MPKI:0.00
PC:159c8     Total:31633      MisBP:0   MisRate:0.00%    MPKI:0.00
PC:11e44     Total:858      MisBP:0   MisRate:0.00%    MPKI:0.00
PC:154de     Total:15      MisBP:0   MisRate:0.00%    MPKI:0.00
PC:292ce     Total:11      MisBP:0   MisRate:0.00%    MPKI:0.00
PC:10184     Total:40      MisBP:0   MisRate:0.00%    MPKI:0.00
PC:297b4     Total:13      MisBP:0   MisRate:0.00%    MPKI:0.00
PC:159c4     Total:31587      MisBP:0   MisRate:0.00%    MPKI:0.00
PC:11e40     Total:429      MisBP:0   MisRate:0.00%    MPKI:0.00
PC:15e0e     Total:32311      MisBP:0   MisRate:0.00%    MPKI:0.00
PC:151c4     Total:3      MisBP:0   MisRate:0.00%    MPKI:0.00
PC:12284     Total:185862      MisBP:0   MisRate:0.00%    MPKI:0.00
PC:11e3e     Total:442      MisBP:0   MisRate:0.00%    MPKI:0.00
PC:14d28     Total:10460      MisBP:0   MisRate:0.00%    MPKI:0.00
PC:1256a     Total:1      MisBP:0   MisRate:0.00%    MPKI:0.00
PC:12566     Total:1      MisBP:0   MisRate:0.00%    MPKI:0.00
PC:3977a     Total:11      MisBP:0   MisRate:0.00%    MPKI:0.00
PC:14a3a     Total:286179      MisBP:0   MisRate:0.00%    MPKI:0.00
PC:15ca4     Total:31957      MisBP:0   MisRate:0.00%    MPKI:0.00
PC:14d22     Total:10343      MisBP:0   MisRate:0.00%    MPKI:0.00
PC:15fe6     Total:32159      MisBP:0   MisRate:0.00%    MPKI:0.00
PC:15ff4     Total:32410      MisBP:0   MisRate:0.00%    MPKI:0.00
PC:10fb2     Total:119      MisBP:0   MisRate:0.00%    MPKI:0.00
PC:15ff2     Total:32215      MisBP:0   MisRate:0.00%    MPKI:0.00
PC:10fb0     Total:119      MisBP:0   MisRate:0.00%    MPKI:0.00
PC:15ff0     Total:32215      MisBP:0   MisRate:0.00%    MPKI:0.00
PC:10fae     Total:119      MisBP:0   MisRate:0.00%    MPKI:0.00
PC:15fee     Total:32215      MisBP:0   MisRate:0.00%    MPKI:0.00
PC:10fac     Total:119      MisBP:0   MisRate:0.00%    MPKI:0.00
PC:15fec     Total:32158      MisBP:0   MisRate:0.00%    MPKI:0.00
PC:10faa     Total:119      MisBP:0   MisRate:0.00%    MPKI:0.00
PC:15fe8     Total:32159      MisBP:0   MisRate:0.00%    MPKI:0.00
PC:10fb4     Total:119      MisBP:0   MisRate:0.00%    MPKI:0.00
PC:10fa4     Total:1      MisBP:0   MisRate:0.00%    MPKI:0.00
PC:15fe2     Total:32167      MisBP:0   MisRate:0.00%    MPKI:0.00
PC:10fa0     Total:1      MisBP:0   MisRate:0.00%    MPKI:0.00
PC:15fe0     Total:32171      MisBP:0   MisRate:0.00%    MPKI:0.00
PC:10f9e     Total:1      MisBP:0   MisRate:0.00%    MPKI:0.00
PC:15fde     Total:32153      MisBP:0   MisRate:0.00%    MPKI:0.00
PC:15fdc     Total:32153      MisBP:0   MisRate:0.00%    MPKI:0.00
PC:10f9a     Total:120      MisBP:0   MisRate:0.00%    MPKI:0.00
PC:15fda     Total:32153      MisBP:0   MisRate:0.00%    MPKI:0.00
PC:10f98     Total:120      MisBP:0   MisRate:0.00%    MPKI:0.00
PC:15fd8     Total:32061      MisBP:0   MisRate:0.00%    MPKI:0.00
PC:16006     Total:32386      MisBP:0   MisRate:0.00%    MPKI:0.00
PC:16026     Total:32364      MisBP:0   MisRate:0.00%    MPKI:0.00
PC:16024     Total:32361      MisBP:0   MisRate:0.00%    MPKI:0.00
PC:16020     Total:32370      MisBP:0   MisRate:0.00%    MPKI:0.00
PC:1601e     Total:32370      MisBP:0   MisRate:0.00%    MPKI:0.00
PC:1601c     Total:32371      MisBP:0   MisRate:0.00%    MPKI:0.00
PC:1601a     Total:32371      MisBP:0   MisRate:0.00%    MPKI:0.00
PC:16018     Total:32380      MisBP:0   MisRate:0.00%    MPKI:0.00
PC:16014     Total:32380      MisBP:0   MisRate:0.00%    MPKI:0.00
PC:16010     Total:32380      MisBP:0   MisRate:0.00%    MPKI:0.00
PC:1600e     Total:32382      MisBP:0   MisRate:0.00%    MPKI:0.00
PC:1600a     Total:32386      MisBP:0   MisRate:0.00%    MPKI:0.00
PC:15fd6     Total:32061      MisBP:0   MisRate:0.00%    MPKI:0.00
PC:16002     Total:32396      MisBP:0   MisRate:0.00%    MPKI:0.00
PC:16000     Total:32396      MisBP:0   MisRate:0.00%    MPKI:0.00
PC:15ffe     Total:32439      MisBP:0   MisRate:0.00%    MPKI:0.00
PC:15ffc     Total:32439      MisBP:0   MisRate:0.00%    MPKI:0.00
PC:10fba     Total:468      MisBP:0   MisRate:0.00%    MPKI:0.00
PC:15ffa     Total:32441      MisBP:0   MisRate:0.00%    MPKI:0.00
PC:10fb8     Total:119      MisBP:0   MisRate:0.00%    MPKI:0.00
PC:15ff8     Total:32445      MisBP:0   MisRate:0.00%    MPKI:0.00
PC:10fb6     Total:119      MisBP:0   MisRate:0.00%    MPKI:0.00
PC:15ff6     Total:32405      MisBP:0   MisRate:0.00%    MPKI:0.00
PC:15f98     Total:31998      MisBP:0   MisRate:0.00%    MPKI:0.00
PC:10f70     Total:715      MisBP:0   MisRate:0.00%    MPKI:0.00
PC:15fb0     Total:32012      MisBP:0   MisRate:0.00%    MPKI:0.00
PC:15fae     Total:32016      MisBP:0   MisRate:0.00%    MPKI:0.00
PC:15fac     Total:32023      MisBP:0   MisRate:0.00%    MPKI:0.00
PC:15faa     Total:32076      MisBP:0   MisRate:0.00%    MPKI:0.00
PC:15fa6     Total:32076      MisBP:0   MisRate:0.00%    MPKI:0.00
PC:15fa4     Total:32078      MisBP:0   MisRate:0.00%    MPKI:0.00
PC:15fa2     Total:32078      MisBP:0   MisRate:0.00%    MPKI:0.00
PC:15fa0     Total:32078      MisBP:0   MisRate:0.00%    MPKI:0.00
PC:15f9c     Total:32078      MisBP:0   MisRate:0.00%    MPKI:0.00
PC:15f9a     Total:32079      MisBP:0   MisRate:0.00%    MPKI:0.00
PC:15fb2     Total:32012      MisBP:0   MisRate:0.00%    MPKI:0.00
PC:15f96     Total:32047      MisBP:0   MisRate:0.00%    MPKI:0.00
PC:15f94     Total:32029      MisBP:0   MisRate:0.00%    MPKI:0.00
PC:15f90     Total:32029      MisBP:0   MisRate:0.00%    MPKI:0.00
PC:15f8c     Total:32029      MisBP:0   MisRate:0.00%    MPKI:0.00
PC:15f88     Total:32029      MisBP:0   MisRate:0.00%    MPKI:0.00
PC:15f86     Total:32029      MisBP:0   MisRate:0.00%    MPKI:0.00
PC:15f84     Total:31983      MisBP:0   MisRate:0.00%    MPKI:0.00
PC:15f80     Total:31983      MisBP:0   MisRate:0.00%    MPKI:0.00
PC:15f7e     Total:32036      MisBP:0   MisRate:0.00%    MPKI:0.00
PC:15f7a     Total:32046      MisBP:0   MisRate:0.00%    MPKI:0.00
PC:10f82     Total:137      MisBP:0   MisRate:0.00%    MPKI:0.00
PC:10f94     Total:137      MisBP:0   MisRate:0.00%    MPKI:0.00
PC:15fd4     Total:32079      MisBP:0   MisRate:0.00%    MPKI:0.00
PC:10f92     Total:137      MisBP:0   MisRate:0.00%    MPKI:0.00
PC:15fd2     Total:32036      MisBP:0   MisRate:0.00%    MPKI:0.00
PC:15fd0     Total:32041      MisBP:0   MisRate:0.00%    MPKI:0.00
[...]
PC:15246     Total:2      MisBP:0   MisRate:0.00%    MPKI:0.00
PC:123a2     Total:360789      MisBP:0   MisRate:0.00%    MPKI:0.00
PC:15cea     Total:31953      MisBP:0   MisRate:0.00%    MPKI:0.00
PC:11f34     Total:79198      MisBP:0   MisRate:0.00%    MPKI:0.00
PC:12328     Total:1227117      MisBP:0   MisRate:0.00%    MPKI:0.00
PC:15236     Total:3      MisBP:0   MisRate:0.00%    MPKI:0.00
PC:15af2     Total:32064      MisBP:0   MisRate:0.00%    MPKI:0.00
PC:11af8     Total:160254      MisBP:0   MisRate:0.00%    MPKI:0.00
PC:12368     Total:655771      MisBP:0   MisRate:0.00%    MPKI:0.00
PC:11eb8     Total:165036      MisBP:0   MisRate:0.00%    MPKI:0.00
PC:15a66     Total:32013      MisBP:0   MisRate:0.00%    MPKI:0.00
PC:11f46     Total:1944889      MisBP:0   MisRate:0.00%    MPKI:0.00
PC:13334     Total:139      MisBP:0   MisRate:0.00%    MPKI:0.00
PC:1596e     Total:31489      MisBP:0   MisRate:0.00%    MPKI:0.00
PC:11af4     Total:160263      MisBP:0   MisRate:0.00%    MPKI:0.00
PC:15abc     Total:31881      MisBP:0   MisRate:0.00%    MPKI:0.00
PC:15ae0     Total:31884      MisBP:0   MisRate:0.00%    MPKI:0.00
PC:131b0     Total:1      MisBP:0   MisRate:0.00%    MPKI:0.00
PC:13336     Total:139      MisBP:0   MisRate:0.00%    MPKI:0.00
PC:14a6e     Total:571381      MisBP:0   MisRate:0.00%    MPKI:0.00
PC:11eb4     Total:165157      MisBP:0   MisRate:0.00%    MPKI:0.00
PC:15cd8     Total:31941      MisBP:0   MisRate:0.00%    MPKI:0.00
PC:123b6     Total:353873      MisBP:0   MisRate:0.00%    MPKI:0.00
PC:11eee     Total:69325      MisBP:0   MisRate:0.00%    MPKI:0.00
PC:101f4     Total:10      MisBP:0   MisRate:0.00%    MPKI:0.00
PC:122ee     Total:646251      MisBP:0   MisRate:0.00%    MPKI:0.00
PC:11b0a     Total:145065      MisBP:0   MisRate:0.00%    MPKI:0.00
PC:15af4     Total:32064      MisBP:0   MisRate:0.00%    MPKI:0.00
PC:11b0c     Total:145001      MisBP:0   MisRate:0.00%    MPKI:0.00
PC:39778     Total:12      MisBP:1   MisRate:8.33%    MPKI:0.00
PC:111de     Total:24      MisBP:1   MisRate:4.17%    MPKI:0.00
PC:39760     Total:13      MisBP:1   MisRate:7.69%    MPKI:0.00
PC:1417e     Total:24      MisBP:1   MisRate:4.17%    MPKI:0.00
PC:13000     Total:4      MisBP:1   MisRate:25.00%    MPKI:0.00
PC:15934     Total:32076      MisBP:1   MisRate:0.00%    MPKI:0.00
PC:165a8     Total:1      MisBP:1   MisRate:100.00%    MPKI:0.00
PC:125b2     Total:1      MisBP:1   MisRate:100.00%    MPKI:0.00
PC:12902     Total:118      MisBP:1   MisRate:0.85%    MPKI:0.00
PC:11c66     Total:5      MisBP:1   MisRate:20.00%    MPKI:0.00
PC:12fd8     Total:1      MisBP:1   MisRate:100.00%    MPKI:0.00
PC:1272a     Total:116      MisBP:1   MisRate:0.86%    MPKI:0.00
PC:14f1e     Total:11      MisBP:1   MisRate:9.09%    MPKI:0.00
PC:15196     Total:9      MisBP:1   MisRate:11.11%    MPKI:0.00
PC:12fde     Total:1      MisBP:1   MisRate:100.00%    MPKI:0.00
PC:14f2e     Total:4      MisBP:1   MisRate:25.00%    MPKI:0.00
PC:128f6     Total:178      MisBP:1   MisRate:0.56%    MPKI:0.00
PC:11c96     Total:8      MisBP:1   MisRate:12.50%    MPKI:0.00
PC:167d0     Total:517      MisBP:1   MisRate:0.19%    MPKI:0.00
PC:29354     Total:1      MisBP:1   MisRate:100.00%    MPKI:0.00
PC:29348     Total:169      MisBP:1   MisRate:0.59%    MPKI:0.00
PC:15504     Total:7      MisBP:1   MisRate:14.29%    MPKI:0.00
PC:14af2     Total:1      MisBP:1   MisRate:100.00%    MPKI:0.00
PC:15408     Total:31543      MisBP:1   MisRate:0.00%    MPKI:0.00
PC:14bfe     Total:8136      MisBP:1   MisRate:0.01%    MPKI:0.00
PC:11d68     Total:10      MisBP:1   MisRate:10.00%    MPKI:0.00
PC:29404     Total:151      MisBP:1   MisRate:0.66%    MPKI:0.00
PC:10f9c     Total:120      MisBP:1   MisRate:0.83%    MPKI:0.00
PC:130ae     Total:612640      MisBP:1   MisRate:0.00%    MPKI:0.00
PC:11b88     Total:1      MisBP:1   MisRate:100.00%    MPKI:0.00
PC:12e6c     Total:113409      MisBP:1   MisRate:0.00%    MPKI:0.00
PC:152f0     Total:348      MisBP:2   MisRate:0.57%    MPKI:0.00
PC:16696     Total:23      MisBP:2   MisRate:8.70%    MPKI:0.00
PC:11d8a     Total:263      MisBP:2   MisRate:0.76%    MPKI:0.00
PC:13354     Total:863      MisBP:2   MisRate:0.23%    MPKI:0.00
PC:1666e     Total:9      MisBP:2   MisRate:22.22%    MPKI:0.00
PC:13074     Total:1460      MisBP:2   MisRate:0.14%    MPKI:0.00
PC:140be     Total:119      MisBP:2   MisRate:1.68%    MPKI:0.00
PC:1104e     Total:113      MisBP:2   MisRate:1.77%    MPKI:0.00
PC:12f14     Total:19      MisBP:2   MisRate:10.53%    MPKI:0.00
PC:12640     Total:24      MisBP:2   MisRate:8.33%    MPKI:0.00
PC:151f8     Total:5      MisBP:2   MisRate:40.00%    MPKI:0.00
PC:14f58     Total:30      MisBP:2   MisRate:6.67%    MPKI:0.00
PC:140d2     Total:1175      MisBP:2   MisRate:0.17%    MPKI:0.00
PC:16896     Total:62      MisBP:2   MisRate:3.23%    MPKI:0.00
PC:11b46     Total:985356      MisBP:2   MisRate:0.00%    MPKI:0.00
PC:166f0     Total:6      MisBP:2   MisRate:33.33%    MPKI:0.00
PC:1253a     Total:67      MisBP:2   MisRate:2.99%    MPKI:0.00
PC:15498     Total:31451      MisBP:2   MisRate:0.01%    MPKI:0.00
PC:166a8     Total:31      MisBP:2   MisRate:6.45%    MPKI:0.00
PC:125f0     Total:914438      MisBP:2   MisRate:0.00%    MPKI:0.00
PC:166b6     Total:33      MisBP:2   MisRate:6.06%    MPKI:0.00
PC:18fa0     Total:18      MisBP:3   MisRate:16.67%    MPKI:0.00
PC:16802     Total:3      MisBP:3   MisRate:100.00%    MPKI:0.00
PC:11bb4     Total:65553      MisBP:3   MisRate:0.00%    MPKI:0.00
PC:165be     Total:15      MisBP:3   MisRate:20.00%    MPKI:0.00
PC:11cc6     Total:65566      MisBP:3   MisRate:0.00%    MPKI:0.00
PC:1516a     Total:46      MisBP:3   MisRate:6.52%    MPKI:0.00
PC:12e5c     Total:149      MisBP:3   MisRate:2.01%    MPKI:0.00
PC:121be     Total:1223      MisBP:3   MisRate:0.25%    MPKI:0.00
PC:10ecc     Total:125      MisBP:4   MisRate:3.20%    MPKI:0.00
PC:1532a     Total:14      MisBP:4   MisRate:28.57%    MPKI:0.00
PC:39800     Total:10      MisBP:4   MisRate:40.00%    MPKI:0.00
PC:151f0     Total:49      MisBP:4   MisRate:8.16%    MPKI:0.00
PC:3975a     Total:10      MisBP:4   MisRate:40.00%    MPKI:0.00
PC:18fb2     Total:15      MisBP:4   MisRate:26.67%    MPKI:0.00
PC:11c50     Total:125099      MisBP:4   MisRate:0.00%    MPKI:0.00
PC:11d9a     Total:19      MisBP:4   MisRate:21.05%    MPKI:0.00
PC:166e8     Total:48      MisBP:4   MisRate:8.33%    MPKI:0.00
PC:14f16     Total:10161      MisBP:4   MisRate:0.04%    MPKI:0.00
PC:153d2     Total:12      MisBP:4   MisRate:33.33%    MPKI:0.00
PC:167fa     Total:17      MisBP:4   MisRate:23.53%    MPKI:0.00
PC:14bc4     Total:803      MisBP:4   MisRate:0.50%    MPKI:0.00
PC:13382     Total:135      MisBP:4   MisRate:2.96%    MPKI:0.00
PC:18d92     Total:5169      MisBP:5   MisRate:0.10%    MPKI:0.00
PC:121f0     Total:1149      MisBP:5   MisRate:0.44%    MPKI:0.00
PC:14162     Total:214      MisBP:5   MisRate:2.34%    MPKI:0.00
PC:14bf6     Total:355      MisBP:5   MisRate:1.41%    MPKI:0.00
PC:10158     Total:534      MisBP:5   MisRate:0.94%    MPKI:0.00
PC:125f6     Total:914443      MisBP:5   MisRate:0.00%    MPKI:0.00
PC:15286     Total:414      MisBP:5   MisRate:1.21%    MPKI:0.00
PC:13346     Total:143      MisBP:5   MisRate:3.50%    MPKI:0.00
PC:166c4     Total:47      MisBP:6   MisRate:12.77%    MPKI:0.00
PC:293d0     Total:150      MisBP:6   MisRate:4.00%    MPKI:0.00
PC:1208c     Total:602      MisBP:6   MisRate:1.00%    MPKI:0.00
PC:16760     Total:8628      MisBP:6   MisRate:0.07%    MPKI:0.00
PC:11c90     Total:47      MisBP:6   MisRate:12.77%    MPKI:0.00
PC:18e8c     Total:97      MisBP:7   MisRate:7.22%    MPKI:0.00
PC:154fa     Total:48      MisBP:7   MisRate:14.58%    MPKI:0.00
PC:29818     Total:21      MisBP:7   MisRate:33.33%    MPKI:0.00
PC:14bde     Total:360      MisBP:7   MisRate:1.94%    MPKI:0.00
PC:12e56     Total:124      MisBP:7   MisRate:5.65%    MPKI:0.00
PC:152aa     Total:20      MisBP:8   MisRate:40.00%    MPKI:0.00
PC:18de2     Total:87      MisBP:8   MisRate:9.20%    MPKI:0.00
PC:11b12     Total:141408      MisBP:8   MisRate:0.01%    MPKI:0.00
PC:18e28     Total:774      MisBP:8   MisRate:1.03%    MPKI:0.00
PC:12efc     Total:130      MisBP:8   MisRate:6.15%    MPKI:0.00
PC:16606     Total:9946      MisBP:9   MisRate:0.09%    MPKI:0.00
PC:16854     Total:9256      MisBP:9   MisRate:0.10%    MPKI:0.00
PC:18fd0     Total:12      MisBP:9   MisRate:75.00%    MPKI:0.00
PC:11d58     Total:125074      MisBP:9   MisRate:0.01%    MPKI:0.00
PC:16768     Total:21      MisBP:10   MisRate:47.62%    MPKI:0.00
PC:167f2     Total:1997      MisBP:10   MisRate:0.50%    MPKI:0.00
PC:29470     Total:163      MisBP:10   MisRate:6.13%    MPKI:0.00
PC:15576     Total:31449      MisBP:10   MisRate:0.03%    MPKI:0.00
PC:16644     Total:913      MisBP:11   MisRate:1.20%    MPKI:0.00
PC:153a8     Total:135      MisBP:11   MisRate:8.15%    MPKI:0.00
PC:153cc     Total:44      MisBP:11   MisRate:25.00%    MPKI:0.00
PC:293c4     Total:150      MisBP:12   MisRate:8.00%    MPKI:0.00
PC:3970e     Total:24      MisBP:12   MisRate:50.00%    MPKI:0.00
PC:12eae     Total:36      MisBP:12   MisRate:33.33%    MPKI:0.00
PC:12eda     Total:286      MisBP:12   MisRate:4.20%    MPKI:0.00
PC:1530e     Total:1666      MisBP:12   MisRate:0.72%    MPKI:0.00
PC:297a0     Total:13      MisBP:12   MisRate:92.31%    MPKI:0.00
PC:141a8     Total:148      MisBP:12   MisRate:8.11%    MPKI:0.00
PC:15444     Total:363      MisBP:13   MisRate:3.58%    MPKI:0.00
PC:1697a     Total:1095      MisBP:14   MisRate:1.28%    MPKI:0.00
PC:154cc     Total:249      MisBP:14   MisRate:5.62%    MPKI:0.00
PC:1593e     Total:31502      MisBP:15   MisRate:0.05%    MPKI:0.00
PC:1308a     Total:30698      MisBP:16   MisRate:0.05%    MPKI:0.00
PC:29654     Total:1899      MisBP:17   MisRate:0.90%    MPKI:0.00
PC:361f6     Total:220      MisBP:19   MisRate:8.64%    MPKI:0.00
PC:29804     Total:54      MisBP:19   MisRate:35.19%    MPKI:0.00
PC:151e8     Total:2107      MisBP:21   MisRate:1.00%    MPKI:0.00
PC:120e6     Total:604      MisBP:21   MisRate:3.48%    MPKI:0.00
PC:15120     Total:50      MisBP:21   MisRate:42.00%    MPKI:0.00
PC:18c2e     Total:13123      MisBP:21   MisRate:0.16%    MPKI:0.00
PC:11e2a     Total:57      MisBP:22   MisRate:38.60%    MPKI:0.00
PC:166e2     Total:430      MisBP:23   MisRate:5.35%    MPKI:0.00
PC:15292     Total:428      MisBP:24   MisRate:5.61%    MPKI:0.00
PC:14168     Total:213      MisBP:24   MisRate:11.27%    MPKI:0.00
PC:16692     Total:625      MisBP:26   MisRate:4.16%    MPKI:0.00
PC:1414a     Total:170      MisBP:27   MisRate:15.88%    MPKI:0.00
PC:18e84     Total:12791      MisBP:29   MisRate:0.23%    MPKI:0.00
PC:15302     Total:1990      MisBP:30   MisRate:1.51%    MPKI:0.00
PC:18dc0     Total:8209      MisBP:33   MisRate:0.40%    MPKI:0.00
PC:12ea0     Total:113409      MisBP:34   MisRate:0.03%    MPKI:0.00
PC:1227c     Total:191083      MisBP:34   MisRate:0.02%    MPKI:0.00
PC:1511c     Total:1913169      MisBP:35   MisRate:0.00%    MPKI:0.00
PC:12140     Total:633      MisBP:38   MisRate:6.00%    MPKI:0.00
PC:153c2     Total:6574      MisBP:39   MisRate:0.59%    MPKI:0.00
PC:1668c     Total:614      MisBP:41   MisRate:6.68%    MPKI:0.00
PC:166d4     Total:444      MisBP:46   MisRate:10.36%    MPKI:0.00
PC:11e26     Total:3002      MisBP:47   MisRate:1.57%    MPKI:0.00
PC:18b64     Total:10614      MisBP:52   MisRate:0.49%    MPKI:0.00
PC:130c8     Total:122207      MisBP:60   MisRate:0.05%    MPKI:0.00
PC:18e16     Total:8409      MisBP:61   MisRate:0.73%    MPKI:0.00
PC:18c4e     Total:386      MisBP:66   MisRate:17.10%    MPKI:0.00
PC:18de0     Total:8604      MisBP:67   MisRate:0.78%    MPKI:0.00
PC:18cc4     Total:320      MisBP:85   MisRate:26.56%    MPKI:0.00
PC:12180     Total:1519      MisBP:86   MisRate:5.66%    MPKI:0.00
PC:167cc     Total:537      MisBP:98   MisRate:18.25%    MPKI:0.00
PC:14bb6     Total:800      MisBP:98   MisRate:12.25%    MPKI:0.00
PC:18ca4     Total:10782      MisBP:99   MisRate:0.92%    MPKI:0.00
PC:11dfc     Total:3016      MisBP:99   MisRate:3.28%    MPKI:0.00
PC:18bf8     Total:12436      MisBP:104   MisRate:0.84%    MPKI:0.00
PC:121dc     Total:1192      MisBP:110   MisRate:9.23%    MPKI:0.00
PC:12182     Total:237      MisBP:120   MisRate:50.63%    MPKI:0.00
PC:29454     Total:587      MisBP:141   MisRate:24.02%    MPKI:0.00
PC:12224     Total:547      MisBP:163   MisRate:29.80%    MPKI:0.00
PC:130b6     Total:611385      MisBP:174   MisRate:0.03%    MPKI:0.00
PC:12da0     Total:10034      MisBP:212   MisRate:2.11%    MPKI:0.00
PC:167e4     Total:2070      MisBP:263   MisRate:12.71%    MPKI:0.00
PC:167b8     Total:1901      MisBP:271   MisRate:14.26%    MPKI:0.00
PC:18cd8     Total:48281      MisBP:282   MisRate:0.58%    MPKI:0.00
PC:15440     Total:1904      MisBP:285   MisRate:14.97%    MPKI:0.00
PC:1221c     Total:826270      MisBP:289   MisRate:0.03%    MPKI:0.00
PC:18c62     Total:56340      MisBP:289   MisRate:0.51%    MPKI:0.00
PC:11f7a     Total:179112      MisBP:340   MisRate:0.19%    MPKI:0.00
PC:12d9c     Total:33073      MisBP:349   MisRate:1.06%    MPKI:0.00
PC:1207e     Total:119378      MisBP:375   MisRate:0.31%    MPKI:0.00
PC:1211e     Total:839311      MisBP:436   MisRate:0.05%    MPKI:0.00
PC:11e60     Total:117214      MisBP:450   MisRate:0.38%    MPKI:0.00
PC:120ce     Total:82611      MisBP:502   MisRate:0.61%    MPKI:0.00
PC:121ae     Total:87769      MisBP:597   MisRate:0.68%    MPKI:0.00
PC:18d84     Total:5877      MisBP:620   MisRate:10.55%    MPKI:0.00
PC:18cfe     Total:45831      MisBP:659   MisRate:1.44%    MPKI:0.00
PC:11e18     Total:5324      MisBP:668   MisRate:12.55%    MPKI:0.00
PC:18bce     Total:12397      MisBP:806   MisRate:6.50%    MPKI:0.00
PC:12178     Total:942346      MisBP:947   MisRate:0.10%    MPKI:0.00
PC:18b5a     Total:10249      MisBP:1122   MisRate:10.95%    MPKI:0.00
PC:16740     Total:7861      MisBP:1880   MisRate:23.92%    MPKI:0.01
PC:18d68     Total:11395      MisBP:1921   MisRate:16.86%    MPKI:0.01
PC:165e6     Total:9177      MisBP:2001   MisRate:21.80%    MPKI:0.01
PC:11e7e     Total:52705      MisBP:2335   MisRate:4.43%    MPKI:0.01
PC:18c88     Total:50839      MisBP:2391   MisRate:4.70%    MPKI:0.01
PC:14a5a     Total:262390      MisBP:2684   MisRate:1.02%    MPKI:0.01
PC:16752     Total:14930      MisBP:2725   MisRate:18.25%    MPKI:0.01
PC:13086     Total:516319      MisBP:3101   MisRate:0.60%    MPKI:0.01
PC:165f8     Total:47261      MisBP:3422   MisRate:7.24%    MPKI:0.01
PC:11ae6     Total:186326      MisBP:3816   MisRate:2.05%    MPKI:0.01
PC:18c5a     Total:47960      MisBP:4174   MisRate:8.70%    MPKI:0.01
PC:18cd0     Total:44748      MisBP:4866   MisRate:10.87%    MPKI:0.02
PC:11aee     Total:166502      MisBP:5392   MisRate:3.24%    MPKI:0.02
PC:11ad0     Total:230983      MisBP:5465   MisRate:2.37%    MPKI:0.02
PC:18bec     Total:73415      MisBP:5496   MisRate:7.49%    MPKI:0.02
PC:18dd0     Total:217859      MisBP:5925   MisRate:2.72%    MPKI:0.02
PC:11ada     Total:196375      MisBP:6238   MisRate:3.18%    MPKI:0.02
PC:123d8     Total:112849      MisBP:6293   MisRate:5.58%    MPKI:0.02
PC:12476     Total:43591      MisBP:6647   MisRate:15.25%    MPKI:0.02
PC:11f64     Total:62121      MisBP:6703   MisRate:10.79%    MPKI:0.02
PC:12430     Total:38875      MisBP:7404   MisRate:19.05%    MPKI:0.02
PC:11aa4     Total:354415      MisBP:8017   MisRate:2.26%    MPKI:0.03
PC:11ac4     Total:247376      MisBP:8102   MisRate:3.28%    MPKI:0.03
PC:11aba     Total:303975      MisBP:8117   MisRate:2.67%    MPKI:0.03
PC:123f8     Total:43538      MisBP:8152   MisRate:18.72%    MPKI:0.03
PC:11e6a     Total:117014      MisBP:8428   MisRate:7.20%    MPKI:0.03
PC:11aae     Total:335875      MisBP:10087   MisRate:3.00%    MPKI:0.03
PC:11a8e     Total:436930      MisBP:10344   MisRate:2.37%    MPKI:0.03
PC:11f08     Total:67793      MisBP:12887   MisRate:19.01%    MPKI:0.04
PC:11a78     Total:520262      MisBP:12998   MisRate:2.50%    MPKI:0.04
PC:11a98     Total:409137      MisBP:13213   MisRate:3.23%    MPKI:0.04
PC:12d8a     Total:153985      MisBP:13490   MisRate:8.76%    MPKI:0.04
PC:124aa     Total:48431      MisBP:13603   MisRate:28.09%    MPKI:0.04
PC:11a5e     Total:635060      MisBP:13737   MisRate:2.16%    MPKI:0.04
PC:12242     Total:107224      MisBP:15142   MisRate:14.12%    MPKI:0.05
PC:11a82     Total:492925      MisBP:18025   MisRate:3.66%    MPKI:0.06
PC:11a6c     Total:613909      MisBP:21932   MisRate:3.57%    MPKI:0.07
PC:12418     Total:553839      MisBP:24640   MisRate:4.45%    MPKI:0.08
PC:11a3a     Total:902055      MisBP:26212   MisRate:2.91%    MPKI:0.08
PC:12030     Total:2988203      MisBP:27462   MisRate:0.92%    MPKI:0.09
PC:11a20     Total:812225      MisBP:30059   MisRate:3.70%    MPKI:0.10
PC:12454     Total:460673      MisBP:30405   MisRate:6.60%    MPKI:0.10
PC:11ec8     Total:154456      MisBP:30928   MisRate:20.02%    MPKI:0.10
PC:11a28     Total:801007      MisBP:31203   MisRate:3.90%    MPKI:0.10
PC:1546e     Total:360073      MisBP:31403   MisRate:8.72%    MPKI:0.10
PC:15402     Total:409239      MisBP:31455   MisRate:7.69%    MPKI:0.10
PC:130c2     Total:607613      MisBP:32404   MisRate:5.33%    MPKI:0.10
PC:150d8     Total:308120      MisBP:35363   MisRate:11.48%    MPKI:0.11
PC:123ba     Total:352816      MisBP:35487   MisRate:10.06%    MPKI:0.11
PC:1234a     Total:523194      MisBP:37433   MisRate:7.15%    MPKI:0.12
PC:11a4a     Total:834131      MisBP:37838   MisRate:4.54%    MPKI:0.12
PC:122f2     Total:645370      MisBP:38356   MisRate:5.94%    MPKI:0.12
PC:11f5c     Total:3705867      MisBP:40664   MisRate:1.10%    MPKI:0.13
PC:1236c     Total:637838      MisBP:41902   MisRate:6.57%    MPKI:0.14
PC:11a04     Total:893190      MisBP:43852   MisRate:4.91%    MPKI:0.14
PC:122be     Total:560036      MisBP:44804   MisRate:8.00%    MPKI:0.14
PC:123c4     Total:126753      MisBP:50285   MisRate:39.67%    MPKI:0.16
PC:12314     Total:696647      MisBP:53011   MisRate:7.61%    MPKI:0.17
PC:12102     Total:795877      MisBP:56349   MisRate:7.08%    MPKI:0.18
PC:11a0c     Total:859310      MisBP:63805   MisRate:7.43%    MPKI:0.21
PC:119fc     Total:994834      MisBP:67724   MisRate:6.81%    MPKI:0.22
PC:1215e     Total:905340      MisBP:71639   MisRate:7.91%    MPKI:0.23
PC:119f4     Total:1034386      MisBP:74176   MisRate:7.17%    MPKI:0.24
PC:150e2     Total:595965      MisBP:88380   MisRate:14.83%    MPKI:0.29
PC:119e4     Total:1207955      MisBP:88485   MisRate:7.33%    MPKI:0.29
PC:12250     Total:578449      MisBP:92746   MisRate:16.03%    MPKI:0.30
PC:14a2e     Total:516880      MisBP:108485   MisRate:20.99%    MPKI:0.35
PC:1508e     Total:539380      MisBP:120315   MisRate:22.31%    MPKI:0.39
PC:1238c     Total:827891      MisBP:181102   MisRate:21.88%    MPKI:0.58
PC:119dc     Total:1379435      MisBP:184358   MisRate:13.36%    MPKI:0.59
PC:12334     Total:983624      MisBP:204062   MisRate:20.75%    MPKI:0.66
PC:122dc     Total:897174      MisBP:215173   MisRate:23.98%    MPKI:0.69
PC:12014     Total:1618103      MisBP:220589   MisRate:13.63%    MPKI:0.71
PC:119ec     Total:1125462      MisBP:226112   MisRate:20.09%    MPKI:0.73
PC:150f4     Total:9532472      MisBP:239074   MisRate:2.51%    MPKI:0.77
PC:12042     Total:2147927      MisBP:240307   MisRate:11.19%    MPKI:0.78
PC:119d4     Total:1537855      MisBP:259303   MisRate:16.86%    MPKI:0.84
PC:1508c     Total:1737196      MisBP:278064   MisRate:16.01%    MPKI:0.90
PC:119cc     Total:1911806      MisBP:335173   MisRate:17.53%    MPKI:1.08
PC:11f40     Total:3295753      MisBP:339952   MisRate:10.31%    MPKI:1.10
PC:119b6     Total:2907776      MisBP:342677   MisRate:11.78%    MPKI:1.11
PC:12040     Total:3161671      MisBP:412968   MisRate:13.06%    MPKI:1.33
Totfetch:641756800  TotInsts:310000002  TotMis : inf%   MPKI : 17.95
=============finish sim!!!!!!=============
Done running SimPoint!
