Global frequency set at 1000000000000 ticks per second
 Register [printBranch()] ExitCallback !!!!!!! 
gem5 Simulator System.  https://www.gem5.org
gem5 is copyrighted software; use the --copyright option for details.

gem5 version 22.0.0.2
gem5 compiled Sep  7 2022 00:42:18
gem5 started Sep  7 2022 02:53:48
gem5 executing on a100, pid 2748580
command line: /data/zxf/gem5/gem5-prof/build/ARM/gem5.fast --outdir=/data/zxf/checkpoint/spec2006/471.omnetpp/prof/omnetpp_ckp_5 /data/zxf/gem5/gem5-prof/configs/example/se.py --cpu-type O3CPU --cpu-clock 1GHz --num-cpu 1 --l1d-hwp-type=BOPPrefetcher --caches --l2cache --l1i_size 32kB --l1d_size 32kB --l2_size 1MB --l1i_assoc 8 --l1d_assoc 8 --l2_assoc 16 --cacheline_size 64 --mem-type DDR3_2133_8x8 --mem-size 16GB --restore-simpoint-checkpoint -r 5 --checkpoint-dir /data/zxf/checkpoint/spec2006/471.omnetpp/ckpt -c omnetpp_base.gcc41-64bit -o omnetpp.ini

info: Standard input is not a terminal, disabling listeners.
Resuming from /data/zxf/checkpoint/spec2006/471.omnetpp/ckpt/cpt.simpoint_04_inst_144590000000_weight_0.142857_interval_300000000_warmup_10000000
Resuming from SimPoint #4, start_inst:144590000000, weight:0.142857, interval:300000000, warmup:10000000
Switch at curTick count:10000
Switched CPUS @ tick 91780103262500
[(<m5.objects.ArmCPU.ArmAtomicSimpleCPU object at 0x7fc68225b940>, <m5.objects.ArmCPU.ArmO3CPU object at 0x7fc682273dc0>)]
switching cpus



+++++++++++++++++++++++++zxf print simpoint+++++++++++++++++++++++++++
Warmed up! Dumping and resetting stats!


=============start sim!!!!!!=============
PC:36b432e     Total:1      MisBP:0   MisRate:0.00%    MPKI:0.00
PC:150dbe0     Total:1      MisBP:0   MisRate:0.00%    MPKI:0.00
PC:bb380     Total:87026      MisBP:0   MisRate:0.00%    MPKI:0.00
PC:1536ccc     Total:2      MisBP:0   MisRate:0.00%    MPKI:0.00
PC:46b92     Total:6139      MisBP:0   MisRate:0.00%    MPKI:0.00
PC:6687034     Total:1      MisBP:0   MisRate:0.00%    MPKI:0.00
PC:36b432a     Total:1      MisBP:0   MisRate:0.00%    MPKI:0.00
PC:150dbe4     Total:1      MisBP:0   MisRate:0.00%    MPKI:0.00
PC:bb384     Total:86969      MisBP:0   MisRate:0.00%    MPKI:0.00
PC:1536cd0     Total:2      MisBP:0   MisRate:0.00%    MPKI:0.00
PC:46b96     Total:6308      MisBP:0   MisRate:0.00%    MPKI:0.00
PC:6687038     Total:1      MisBP:0   MisRate:0.00%    MPKI:0.00
PC:36b4326     Total:1      MisBP:0   MisRate:0.00%    MPKI:0.00
PC:150dbe8     Total:1      MisBP:0   MisRate:0.00%    MPKI:0.00
PC:bb388     Total:219470      MisBP:0   MisRate:0.00%    MPKI:0.00
PC:1536cd4     Total:2      MisBP:0   MisRate:0.00%    MPKI:0.00
PC:46b9a     Total:6149      MisBP:0   MisRate:0.00%    MPKI:0.00
PC:668703c     Total:1      MisBP:0   MisRate:0.00%    MPKI:0.00
PC:36b4332     Total:2      MisBP:0   MisRate:0.00%    MPKI:0.00
PC:150dbec     Total:1      MisBP:0   MisRate:0.00%    MPKI:0.00
PC:1536cd8     Total:2      MisBP:0   MisRate:0.00%    MPKI:0.00
PC:46b9e     Total:115295      MisBP:0   MisRate:0.00%    MPKI:0.00
PC:6687040     Total:1      MisBP:0   MisRate:0.00%    MPKI:0.00
PC:5237424     Total:1      MisBP:0   MisRate:0.00%    MPKI:0.00
PC:608e14     Total:8      MisBP:0   MisRate:0.00%    MPKI:0.00
PC:65f1578     Total:1      MisBP:0   MisRate:0.00%    MPKI:0.00
PC:2eb88     Total:34      MisBP:0   MisRate:0.00%    MPKI:0.00
PC:608e30     Total:8      MisBP:0   MisRate:0.00%    MPKI:0.00
PC:5237414     Total:2      MisBP:0   MisRate:0.00%    MPKI:0.00
PC:65f1584     Total:1      MisBP:0   MisRate:0.00%    MPKI:0.00
PC:2eb94     Total:6      MisBP:0   MisRate:0.00%    MPKI:0.00
PC:608e3c     Total:8      MisBP:0   MisRate:0.00%    MPKI:0.00
PC:5237420     Total:1      MisBP:0   MisRate:0.00%    MPKI:0.00
PC:65f1588     Total:1      MisBP:0   MisRate:0.00%    MPKI:0.00
PC:608e40     Total:8      MisBP:0   MisRate:0.00%    MPKI:0.00
PC:36c93d8     Total:2      MisBP:0   MisRate:0.00%    MPKI:0.00
PC:65f15a4     Total:1      MisBP:0   MisRate:0.00%    MPKI:0.00
PC:5237440     Total:2      MisBP:0   MisRate:0.00%    MPKI:0.00
PC:65f15b4     Total:1      MisBP:0   MisRate:0.00%    MPKI:0.00
PC:5237450     Total:1      MisBP:0   MisRate:0.00%    MPKI:0.00
PC:65f15b8     Total:1      MisBP:0   MisRate:0.00%    MPKI:0.00
PC:5237454     Total:1      MisBP:0   MisRate:0.00%    MPKI:0.00
PC:65f15bc     Total:1      MisBP:0   MisRate:0.00%    MPKI:0.00
PC:5237458     Total:1      MisBP:0   MisRate:0.00%    MPKI:0.00
PC:46b8e     Total:6141      MisBP:0   MisRate:0.00%    MPKI:0.00
PC:6687030     Total:1      MisBP:0   MisRate:0.00%    MPKI:0.00
PC:46bb2     Total:109702      MisBP:0   MisRate:0.00%    MPKI:0.00
PC:32e2774     Total:2      MisBP:0   MisRate:0.00%    MPKI:0.00
PC:150dbfc     Total:1      MisBP:0   MisRate:0.00%    MPKI:0.00
PC:bb39c     Total:164621      MisBP:0   MisRate:0.00%    MPKI:0.00
PC:1536ce8     Total:2      MisBP:0   MisRate:0.00%    MPKI:0.00
PC:46bae     Total:109826      MisBP:0   MisRate:0.00%    MPKI:0.00
PC:6687050     Total:1      MisBP:0   MisRate:0.00%    MPKI:0.00
PC:a7356     Total:20      MisBP:0   MisRate:0.00%    MPKI:0.00
PC:36c93e8     Total:2      MisBP:0   MisRate:0.00%    MPKI:0.00
PC:32e2778     Total:2      MisBP:0   MisRate:0.00%    MPKI:0.00
PC:bb3a0     Total:164434      MisBP:0   MisRate:0.00%    MPKI:0.00
PC:1536cec     Total:2      MisBP:0   MisRate:0.00%    MPKI:0.00
PC:36c93e4     Total:2      MisBP:0   MisRate:0.00%    MPKI:0.00
PC:6687054     Total:1      MisBP:0   MisRate:0.00%    MPKI:0.00
PC:a735a     Total:15      MisBP:0   MisRate:0.00%    MPKI:0.00
PC:36c93ec     Total:2      MisBP:0   MisRate:0.00%    MPKI:0.00
PC:32e277c     Total:2      MisBP:0   MisRate:0.00%    MPKI:0.00
PC:bb3a4     Total:164220      MisBP:0   MisRate:0.00%    MPKI:0.00
PC:1536cf0     Total:2      MisBP:0   MisRate:0.00%    MPKI:0.00
PC:46bb6     Total:109670      MisBP:0   MisRate:0.00%    MPKI:0.00
PC:6687058     Total:2      MisBP:0   MisRate:0.00%    MPKI:0.00
PC:36c93f0     Total:2      MisBP:0   MisRate:0.00%    MPKI:0.00
PC:32e2780     Total:2      MisBP:0   MisRate:0.00%    MPKI:0.00
PC:bb394     Total:167442      MisBP:0   MisRate:0.00%    MPKI:0.00
PC:32e2768     Total:2      MisBP:0   MisRate:0.00%    MPKI:0.00
PC:36b4336     Total:2      MisBP:0   MisRate:0.00%    MPKI:0.00
PC:150dbf0     Total:1      MisBP:0   MisRate:0.00%    MPKI:0.00
PC:bb390     Total:168603      MisBP:0   MisRate:0.00%    MPKI:0.00
PC:1536cdc     Total:2      MisBP:0   MisRate:0.00%    MPKI:0.00
PC:6687044     Total:3      MisBP:0   MisRate:0.00%    MPKI:0.00
PC:a734a     Total:20      MisBP:0   MisRate:0.00%    MPKI:0.00
PC:36c93dc     Total:2      MisBP:0   MisRate:0.00%    MPKI:0.00
PC:32e276c     Total:2      MisBP:0   MisRate:0.00%    MPKI:0.00
PC:36b433a     Total:1      MisBP:0   MisRate:0.00%    MPKI:0.00
PC:150dbf4     Total:2      MisBP:0   MisRate:0.00%    MPKI:0.00
PC:65f155c     Total:2      MisBP:0   MisRate:0.00%    MPKI:0.00
PC:1536ce0     Total:2      MisBP:0   MisRate:0.00%    MPKI:0.00
PC:46ba6     Total:115141      MisBP:0   MisRate:0.00%    MPKI:0.00
PC:6687048     Total:2      MisBP:0   MisRate:0.00%    MPKI:0.00
PC:36c93e0     Total:2      MisBP:0   MisRate:0.00%    MPKI:0.00
PC:32e2770     Total:2      MisBP:0   MisRate:0.00%    MPKI:0.00
PC:36b433e     Total:1      MisBP:0   MisRate:0.00%    MPKI:0.00
PC:150dbf8     Total:1      MisBP:0   MisRate:0.00%    MPKI:0.00
PC:bb398     Total:167224      MisBP:0   MisRate:0.00%    MPKI:0.00
PC:1536ce4     Total:2      MisBP:0   MisRate:0.00%    MPKI:0.00
PC:668704c     Total:3      MisBP:0   MisRate:0.00%    MPKI:0.00
PC:1cdc984     Total:8      MisBP:0   MisRate:0.00%    MPKI:0.00
PC:f4908     Total:6      MisBP:0   MisRate:0.00%    MPKI:0.00
PC:1cdc970     Total:9      MisBP:0   MisRate:0.00%    MPKI:0.00
PC:f490c     Total:12      MisBP:0   MisRate:0.00%    MPKI:0.00
PC:1cdc974     Total:9      MisBP:0   MisRate:0.00%    MPKI:0.00
PC:f4910     Total:6      MisBP:0   MisRate:0.00%    MPKI:0.00
PC:1cdc978     Total:9      MisBP:0   MisRate:0.00%    MPKI:0.00
PC:f4914     Total:6      MisBP:0   MisRate:0.00%    MPKI:0.00
PC:1cdc97c     Total:18      MisBP:0   MisRate:0.00%    MPKI:0.00
PC:f4918     Total:6      MisBP:0   MisRate:0.00%    MPKI:0.00
PC:1cdc980     Total:8      MisBP:0   MisRate:0.00%    MPKI:0.00
PC:f491c     Total:6      MisBP:0   MisRate:0.00%    MPKI:0.00
PC:1cdc96c     Total:9      MisBP:0   MisRate:0.00%    MPKI:0.00
PC:f4920     Total:6      MisBP:0   MisRate:0.00%    MPKI:0.00
PC:1cdc988     Total:8      MisBP:0   MisRate:0.00%    MPKI:0.00
PC:f4924     Total:6      MisBP:0   MisRate:0.00%    MPKI:0.00
PC:1cdc98c     Total:8      MisBP:0   MisRate:0.00%    MPKI:0.00
PC:f4928     Total:6      MisBP:0   MisRate:0.00%    MPKI:0.00
PC:1cdc990     Total:8      MisBP:0   MisRate:0.00%    MPKI:0.00
PC:f492c     Total:12      MisBP:0   MisRate:0.00%    MPKI:0.00
PC:1cdc994     Total:8      MisBP:0   MisRate:0.00%    MPKI:0.00
PC:f4930     Total:12      MisBP:0   MisRate:0.00%    MPKI:0.00
PC:1cdc998     Total:8      MisBP:0   MisRate:0.00%    MPKI:0.00
PC:44f63c4     Total:1      MisBP:0   MisRate:0.00%    MPKI:0.00
PC:663d7b0     Total:1      MisBP:0   MisRate:0.00%    MPKI:0.00
PC:44f6388     Total:2      MisBP:0   MisRate:0.00%    MPKI:0.00
PC:2b46efc     Total:14      MisBP:0   MisRate:0.00%    MPKI:0.00
PC:56d7f34     Total:1      MisBP:0   MisRate:0.00%    MPKI:0.00
PC:663d7b4     Total:2      MisBP:0   MisRate:0.00%    MPKI:0.00
PC:44f63bc     Total:2      MisBP:0   MisRate:0.00%    MPKI:0.00
PC:2b46f30     Total:12      MisBP:0   MisRate:0.00%    MPKI:0.00
PC:56d7f68     Total:1      MisBP:0   MisRate:0.00%    MPKI:0.00
PC:44f63c0     Total:1      MisBP:0   MisRate:0.00%    MPKI:0.00
PC:2b46f34     Total:24      MisBP:0   MisRate:0.00%    MPKI:0.00
PC:56d7f6c     Total:1      MisBP:0   MisRate:0.00%    MPKI:0.00
PC:f4934     Total:6      MisBP:0   MisRate:0.00%    MPKI:0.00
PC:2b46f38     Total:12      MisBP:0   MisRate:0.00%    MPKI:0.00
PC:56d7f70     Total:2      MisBP:0   MisRate:0.00%    MPKI:0.00
PC:44f63c8     Total:1      MisBP:0   MisRate:0.00%    MPKI:0.00
PC:2b46f3c     Total:12      MisBP:0   MisRate:0.00%    MPKI:0.00
PC:56d7f74     Total:1      MisBP:0   MisRate:0.00%    MPKI:0.00
PC:32358bc     Total:1      MisBP:0   MisRate:0.00%    MPKI:0.00
PC:347c2a8     Total:1      MisBP:0   MisRate:0.00%    MPKI:0.00
PC:f4900     Total:6      MisBP:0   MisRate:0.00%    MPKI:0.00
PC:1cdc968     Total:9      MisBP:0   MisRate:0.00%    MPKI:0.00
PC:f4904     Total:12      MisBP:0   MisRate:0.00%    MPKI:0.00
PC:608de0     Total:9      MisBP:0   MisRate:0.00%    MPKI:0.00
PC:1a7ce0     Total:2      MisBP:0   MisRate:0.00%    MPKI:0.00
PC:64ee788     Total:1      MisBP:0   MisRate:0.00%    MPKI:0.00
PC:1a7ce4     Total:1      MisBP:0   MisRate:0.00%    MPKI:0.00
PC:5ad3fe4     Total:10      MisBP:0   MisRate:0.00%    MPKI:0.00
PC:6441b48     Total:1      MisBP:0   MisRate:0.00%    MPKI:0.00
PC:5ad3fe8     Total:5      MisBP:0   MisRate:0.00%    MPKI:0.00
PC:6441b4c     Total:1      MisBP:0   MisRate:0.00%    MPKI:0.00
PC:5ad3fec     Total:7      MisBP:0   MisRate:0.00%    MPKI:0.00
PC:6441b50     Total:2      MisBP:0   MisRate:0.00%    MPKI:0.00
PC:608dd8     Total:9      MisBP:0   MisRate:0.00%    MPKI:0.00
PC:608ddc     Total:9      MisBP:0   MisRate:0.00%    MPKI:0.00
PC:64ee784     Total:1      MisBP:0   MisRate:0.00%    MPKI:0.00
PC:65f1538     Total:1      MisBP:0   MisRate:0.00%    MPKI:0.00
PC:608df0     Total:9      MisBP:0   MisRate:0.00%    MPKI:0.00
PC:65f153c     Total:1      MisBP:0   MisRate:0.00%    MPKI:0.00
PC:608df4     Total:9      MisBP:0   MisRate:0.00%    MPKI:0.00
PC:65f1540     Total:1      MisBP:0   MisRate:0.00%    MPKI:0.00
PC:608df8     Total:9      MisBP:0   MisRate:0.00%    MPKI:0.00
PC:65f1544     Total:1      MisBP:0   MisRate:0.00%    MPKI:0.00
PC:608dfc     Total:9      MisBP:0   MisRate:0.00%    MPKI:0.00
PC:65f1558     Total:1      MisBP:0   MisRate:0.00%    MPKI:0.00
PC:608e10     Total:8      MisBP:0   MisRate:0.00%    MPKI:0.00
PC:453dafc     Total:2      MisBP:0   MisRate:0.00%    MPKI:0.00
PC:1cdc99c     Total:8      MisBP:0   MisRate:0.00%    MPKI:0.00
PC:f4938     Total:6      MisBP:0   MisRate:0.00%    MPKI:0.00
PC:1cdc9a0     Total:8      MisBP:0   MisRate:0.00%    MPKI:0.00
PC:f493c     Total:6      MisBP:0   MisRate:0.00%    MPKI:0.00
PC:1cdc9a4     Total:8      MisBP:0   MisRate:0.00%    MPKI:0.00
PC:453daf0     Total:1      MisBP:0   MisRate:0.00%    MPKI:0.00
PC:36ce7f8     Total:1      MisBP:0   MisRate:0.00%    MPKI:0.00
PC:453daf4     Total:1      MisBP:0   MisRate:0.00%    MPKI:0.00
PC:36ce7fc     Total:1      MisBP:0   MisRate:0.00%    MPKI:0.00
PC:453daf8     Total:2      MisBP:0   MisRate:0.00%    MPKI:0.00
PC:1536cf4     Total:2      MisBP:0   MisRate:0.00%    MPKI:0.00
PC:4607670     Total:1      MisBP:0   MisRate:0.00%    MPKI:0.00
PC:4607674     Total:1      MisBP:0   MisRate:0.00%    MPKI:0.00
PC:64ee774     Total:2      MisBP:0   MisRate:0.00%    MPKI:0.00
PC:1a7cd0     Total:1      MisBP:0   MisRate:0.00%    MPKI:0.00
PC:64ee778     Total:2      MisBP:0   MisRate:0.00%    MPKI:0.00
PC:1a7cd4     Total:1      MisBP:0   MisRate:0.00%    MPKI:0.00
PC:64ee77c     Total:2      MisBP:0   MisRate:0.00%    MPKI:0.00
PC:1a7cd8     Total:1      MisBP:0   MisRate:0.00%    MPKI:0.00
PC:64ee780     Total:1      MisBP:0   MisRate:0.00%    MPKI:0.00
PC:1a7cdc     Total:1      MisBP:0   MisRate:0.00%    MPKI:0.00
PC:6633850     Total:2      MisBP:0   MisRate:0.00%    MPKI:0.00
PC:4bc74     Total:911      MisBP:0   MisRate:0.00%    MPKI:0.00
PC:651586c     Total:2      MisBP:0   MisRate:0.00%    MPKI:0.00
PC:66870bc     Total:1      MisBP:0   MisRate:0.00%    MPKI:0.00
PC:63fa710     Total:2      MisBP:0   MisRate:0.00%    MPKI:0.00
PC:32e27e4     Total:1      MisBP:0   MisRate:0.00%    MPKI:0.00
PC:4bc78     Total:911      MisBP:0   MisRate:0.00%    MPKI:0.00
PC:6515870     Total:2      MisBP:0   MisRate:0.00%    MPKI:0.00
PC:4aa15c     Total:1      MisBP:0   MisRate:0.00%    MPKI:0.00
PC:663384c     Total:2      MisBP:0   MisRate:0.00%    MPKI:0.00
PC:2b05420     Total:1      MisBP:0   MisRate:0.00%    MPKI:0.00
PC:4aa160     Total:1      MisBP:0   MisRate:0.00%    MPKI:0.00
PC:32e27e0     Total:1      MisBP:0   MisRate:0.00%    MPKI:0.00
PC:2b05424     Total:1      MisBP:0   MisRate:0.00%    MPKI:0.00
PC:4aa164     Total:1      MisBP:0   MisRate:0.00%    MPKI:0.00
PC:6633854     Total:3      MisBP:0   MisRate:0.00%    MPKI:0.00
PC:1ab58     Total:1      MisBP:0   MisRate:0.00%    MPKI:0.00
PC:2b05428     Total:1      MisBP:0   MisRate:0.00%    MPKI:0.00
PC:4aa168     Total:1      MisBP:0   MisRate:0.00%    MPKI:0.00
PC:6633858     Total:1      MisBP:0   MisRate:0.00%    MPKI:0.00
PC:1ab5c     Total:5      MisBP:0   MisRate:0.00%    MPKI:0.00
PC:2b0542c     Total:1      MisBP:0   MisRate:0.00%    MPKI:0.00
PC:4aa16c     Total:1      MisBP:0   MisRate:0.00%    MPKI:0.00
PC:63fa700     Total:2      MisBP:0   MisRate:0.00%    MPKI:0.00
PC:6515850     Total:2      MisBP:0   MisRate:0.00%    MPKI:0.00
PC:66870a0     Total:1      MisBP:0   MisRate:0.00%    MPKI:0.00
PC:6515854     Total:2      MisBP:0   MisRate:0.00%    MPKI:0.00
PC:66870a4     Total:1      MisBP:0   MisRate:0.00%    MPKI:0.00
PC:4bc60     Total:252716      MisBP:0   MisRate:0.00%    MPKI:0.00
PC:6515858     Total:2      MisBP:0   MisRate:0.00%    MPKI:0.00
PC:66870a8     Total:1      MisBP:0   MisRate:0.00%    MPKI:0.00
PC:63fa6fc     Total:4      MisBP:0   MisRate:0.00%    MPKI:0.00
PC:32e27d0     Total:1      MisBP:0   MisRate:0.00%    MPKI:0.00
PC:651585c     Total:4      MisBP:0   MisRate:0.00%    MPKI:0.00
PC:66870ac     Total:1      MisBP:0   MisRate:0.00%    MPKI:0.00
PC:663385c     Total:1      MisBP:0   MisRate:0.00%    MPKI:0.00
PC:32e27d4     Total:1      MisBP:0   MisRate:0.00%    MPKI:0.00
PC:4bc68     Total:991      MisBP:0   MisRate:0.00%    MPKI:0.00
PC:6515860     Total:2      MisBP:0   MisRate:0.00%    MPKI:0.00
PC:66870b0     Total:1      MisBP:0   MisRate:0.00%    MPKI:0.00
PC:6515864     Total:2      MisBP:0   MisRate:0.00%    MPKI:0.00
PC:66870b4     Total:1      MisBP:0   MisRate:0.00%    MPKI:0.00
PC:4bc70     Total:919      MisBP:0   MisRate:0.00%    MPKI:0.00
PC:6515868     Total:2      MisBP:0   MisRate:0.00%    MPKI:0.00
PC:66870b8     Total:1      MisBP:0   MisRate:0.00%    MPKI:0.00
PC:63fa70c     Total:4      MisBP:0   MisRate:0.00%    MPKI:0.00
PC:6599334     Total:2      MisBP:0   MisRate:0.00%    MPKI:0.00
PC:1ab7c     Total:362      MisBP:0   MisRate:0.00%    MPKI:0.00
PC:2b0544c     Total:1      MisBP:0   MisRate:0.00%    MPKI:0.00
PC:663387c     Total:1      MisBP:0   MisRate:0.00%    MPKI:0.00
PC:659932c     Total:2      MisBP:0   MisRate:0.00%    MPKI:0.00
PC:32e117c     Total:1      MisBP:0   MisRate:0.00%    MPKI:0.00
PC:2b05450     Total:1      MisBP:0   MisRate:0.00%    MPKI:0.00
PC:6633880     Total:1      MisBP:0   MisRate:0.00%    MPKI:0.00
PC:6599330     Total:4      MisBP:0   MisRate:0.00%    MPKI:0.00
PC:32e1180     Total:1      MisBP:0   MisRate:0.00%    MPKI:0.00
PC:2b05454     Total:1      MisBP:0   MisRate:0.00%    MPKI:0.00
PC:6633884     Total:1      MisBP:0   MisRate:0.00%    MPKI:0.00
PC:6633878     Total:1      MisBP:0   MisRate:0.00%    MPKI:0.00
PC:32e1184     Total:1      MisBP:0   MisRate:0.00%    MPKI:0.00
PC:1ab88     Total:314      MisBP:0   MisRate:0.00%    MPKI:0.00
PC:2b05458     Total:1      MisBP:0   MisRate:0.00%    MPKI:0.00
PC:6633888     Total:1      MisBP:0   MisRate:0.00%    MPKI:0.00
PC:6599338     Total:1      MisBP:0   MisRate:0.00%    MPKI:0.00
PC:32e1188     Total:1      MisBP:0   MisRate:0.00%    MPKI:0.00
PC:1ab8c     Total:226      MisBP:0   MisRate:0.00%    MPKI:0.00
PC:2b0545c     Total:1      MisBP:0   MisRate:0.00%    MPKI:0.00
PC:663388c     Total:1      MisBP:0   MisRate:0.00%    MPKI:0.00
PC:659933c     Total:1      MisBP:0   MisRate:0.00%    MPKI:0.00
PC:4aa178     Total:1      MisBP:0   MisRate:0.00%    MPKI:0.00
PC:1ab60     Total:1      MisBP:0   MisRate:0.00%    MPKI:0.00
PC:2b05430     Total:1      MisBP:0   MisRate:0.00%    MPKI:0.00
PC:4aa170     Total:1      MisBP:0   MisRate:0.00%    MPKI:0.00
PC:6633860     Total:1      MisBP:0   MisRate:0.00%    MPKI:0.00
PC:2b05434     Total:1      MisBP:0   MisRate:0.00%    MPKI:0.00
PC:4aa174     Total:1      MisBP:0   MisRate:0.00%    MPKI:0.00
PC:6633864     Total:1      MisBP:0   MisRate:0.00%    MPKI:0.00
PC:1ab68     Total:362      MisBP:0   MisRate:0.00%    MPKI:0.00
PC:2b05438     Total:1      MisBP:0   MisRate:0.00%    MPKI:0.00
PC:4677a     Total:1      MisBP:0   MisRate:0.00%    MPKI:0.00
PC:4bc58     Total:268175      MisBP:0   MisRate:0.00%    MPKI:0.00
PC:6633868     Total:1      MisBP:0   MisRate:0.00%    MPKI:0.00
PC:2b0543c     Total:1      MisBP:0   MisRate:0.00%    MPKI:0.00
PC:4677e     Total:1      MisBP:0   MisRate:0.00%    MPKI:0.00
PC:4aa17c     Total:1      MisBP:0   MisRate:0.00%    MPKI:0.00
PC:663386c     Total:1      MisBP:0   MisRate:0.00%    MPKI:0.00
PC:2b05440     Total:1      MisBP:0   MisRate:0.00%    MPKI:0.00
PC:6633870     Total:1      MisBP:0   MisRate:0.00%    MPKI:0.00
PC:2b05444     Total:1      MisBP:0   MisRate:0.00%    MPKI:0.00
PC:6633874     Total:2      MisBP:0   MisRate:0.00%    MPKI:0.00
PC:2b05448     Total:1      MisBP:0   MisRate:0.00%    MPKI:0.00
PC:32e2798     Total:2      MisBP:0   MisRate:0.00%    MPKI:0.00
PC:668706c     Total:2      MisBP:0   MisRate:0.00%    MPKI:0.00
PC:63fa6c0     Total:2      MisBP:0   MisRate:0.00%    MPKI:0.00
PC:36c9404     Total:1      MisBP:0   MisRate:0.00%    MPKI:0.00
PC:32e2794     Total:2      MisBP:0   MisRate:0.00%    MPKI:0.00
PC:4bc28     Total:162022      MisBP:0   MisRate:0.00%    MPKI:0.00
PC:6515820     Total:2      MisBP:0   MisRate:0.00%    MPKI:0.00
PC:46bce     Total:108929      MisBP:0   MisRate:0.00%    MPKI:0.00
PC:6687070     Total:1      MisBP:0   MisRate:0.00%    MPKI:0.00
PC:63fa6c4     Total:2      MisBP:0   MisRate:0.00%    MPKI:0.00
PC:a7376     Total:15      MisBP:0   MisRate:0.00%    MPKI:0.00
PC:36c9408     Total:1      MisBP:0   MisRate:0.00%    MPKI:0.00
PC:32e2790     Total:2      MisBP:0   MisRate:0.00%    MPKI:0.00
PC:4bc2c     Total:161906      MisBP:0   MisRate:0.00%    MPKI:0.00
PC:6515824     Total:2      MisBP:0   MisRate:0.00%    MPKI:0.00
PC:6687074     Total:1      MisBP:0   MisRate:0.00%    MPKI:0.00
PC:63fa6c8     Total:2      MisBP:0   MisRate:0.00%    MPKI:0.00
PC:a737a     Total:15      MisBP:0   MisRate:0.00%    MPKI:0.00
PC:36c940c     Total:1      MisBP:0   MisRate:0.00%    MPKI:0.00
PC:32e279c     Total:2      MisBP:0   MisRate:0.00%    MPKI:0.00
PC:4bc30     Total:161903      MisBP:0   MisRate:0.00%    MPKI:0.00
PC:6515828     Total:2      MisBP:0   MisRate:0.00%    MPKI:0.00
PC:6687078     Total:1      MisBP:0   MisRate:0.00%    MPKI:0.00
PC:32e2788     Total:2      MisBP:0   MisRate:0.00%    MPKI:0.00
PC:46bba     Total:109555      MisBP:0   MisRate:0.00%    MPKI:0.00
PC:668705c     Total:2      MisBP:0   MisRate:0.00%    MPKI:0.00
PC:36c93f4     Total:2      MisBP:0   MisRate:0.00%    MPKI:0.00
PC:32e2784     Total:2      MisBP:0   MisRate:0.00%    MPKI:0.00
PC:2c9f798     Total:1      MisBP:0   MisRate:0.00%    MPKI:0.00
PC:bb3ac     Total:130799      MisBP:0   MisRate:0.00%    MPKI:0.00
PC:1536cf8     Total:2      MisBP:0   MisRate:0.00%    MPKI:0.00
PC:46bbe     Total:106486      MisBP:0   MisRate:0.00%    MPKI:0.00
PC:6687060     Total:1      MisBP:0   MisRate:0.00%    MPKI:0.00
PC:a7366     Total:15      MisBP:0   MisRate:0.00%    MPKI:0.00
PC:36c93f8     Total:2      MisBP:0   MisRate:0.00%    MPKI:0.00
PC:63fa6cc     Total:2      MisBP:0   MisRate:0.00%    MPKI:0.00
PC:2c9f79c     Total:2      MisBP:0   MisRate:0.00%    MPKI:0.00
PC:bb3b0     Total:130094      MisBP:0   MisRate:0.00%    MPKI:0.00
PC:1536cfc     Total:2      MisBP:0   MisRate:0.00%    MPKI:0.00
PC:46bc2     Total:106417      MisBP:0   MisRate:0.00%    MPKI:0.00
PC:6687064     Total:1      MisBP:0   MisRate:0.00%    MPKI:0.00
PC:a736a     Total:15      MisBP:0   MisRate:0.00%    MPKI:0.00
PC:36c93fc     Total:2      MisBP:0   MisRate:0.00%    MPKI:0.00
PC:32e278c     Total:2      MisBP:0   MisRate:0.00%    MPKI:0.00
PC:6687068     Total:1      MisBP:0   MisRate:0.00%    MPKI:0.00
PC:36c9400     Total:1      MisBP:0   MisRate:0.00%    MPKI:0.00
PC:6687094     Total:1      MisBP:0   MisRate:0.00%    MPKI:0.00
PC:4bc44     Total:276079      MisBP:0   MisRate:0.00%    MPKI:0.00
PC:651583c     Total:6      MisBP:0   MisRate:0.00%    MPKI:0.00
PC:668708c     Total:1      MisBP:0   MisRate:0.00%    MPKI:0.00
PC:63fa6e0     Total:2      MisBP:0   MisRate:0.00%    MPKI:0.00
PC:36c9424     Total:1      MisBP:0   MisRate:0.00%    MPKI:0.00
PC:32e27b4     Total:2      MisBP:0   MisRate:0.00%    MPKI:0.00
PC:4bc48     Total:221623      MisBP:0   MisRate:0.00%    MPKI:0.00
PC:6515840     Total:2      MisBP:0   MisRate:0.00%    MPKI:0.00
PC:6687090     Total:1      MisBP:0   MisRate:0.00%    MPKI:0.00
PC:4bc4c     Total:221466      MisBP:0   MisRate:0.00%    MPKI:0.00
PC:6515844     Total:2      MisBP:0   MisRate:0.00%    MPKI:0.00
PC:32e27b0     Total:2      MisBP:0   MisRate:0.00%    MPKI:0.00
PC:6515848     Total:2      MisBP:0   MisRate:0.00%    MPKI:0.00
PC:6687098     Total:1      MisBP:0   MisRate:0.00%    MPKI:0.00
PC:63fa6ec     Total:4      MisBP:0   MisRate:0.00%    MPKI:0.00
PC:36c9430     Total:1      MisBP:0   MisRate:0.00%    MPKI:0.00
PC:32e27c0     Total:1      MisBP:0   MisRate:0.00%    MPKI:0.00
PC:651584c     Total:2      MisBP:0   MisRate:0.00%    MPKI:0.00
PC:668709c     Total:1      MisBP:0   MisRate:0.00%    MPKI:0.00
PC:63fa6f0     Total:2      MisBP:0   MisRate:0.00%    MPKI:0.00
PC:36c9434     Total:1      MisBP:0   MisRate:0.00%    MPKI:0.00
PC:32e27c4     Total:1      MisBP:0   MisRate:0.00%    MPKI:0.00
PC:32e27a8     Total:2      MisBP:0   MisRate:0.00%    MPKI:0.00
PC:32e27a0     Total:2      MisBP:0   MisRate:0.00%    MPKI:0.00
PC:651582c     Total:2      MisBP:0   MisRate:0.00%    MPKI:0.00
PC:668707c     Total:1      MisBP:0   MisRate:0.00%    MPKI:0.00
PC:63fa6d0     Total:2      MisBP:0   MisRate:0.00%    MPKI:0.00
PC:32e27a4     Total:2      MisBP:0   MisRate:0.00%    MPKI:0.00
PC:4bc38     Total:161826      MisBP:0   MisRate:0.00%    MPKI:0.00
PC:6515830     Total:2      MisBP:0   MisRate:0.00%    MPKI:0.00
PC:6687080     Total:1      MisBP:0   MisRate:0.00%    MPKI:0.00
PC:63fa6d4     Total:4      MisBP:0   MisRate:0.00%    MPKI:0.00
PC:a7386     Total:11      MisBP:0   MisRate:0.00%    MPKI:0.00
PC:56d7f30     Total:1      MisBP:0   MisRate:0.00%    MPKI:0.00
PC:4bc3c     Total:161820      MisBP:0   MisRate:0.00%    MPKI:0.00
PC:6515834     Total:4      MisBP:0   MisRate:0.00%    MPKI:0.00
PC:6687084     Total:3      MisBP:0   MisRate:0.00%    MPKI:0.00
PC:a738a     Total:11      MisBP:0   MisRate:0.00%    MPKI:0.00
PC:63fa6d8     Total:4      MisBP:0   MisRate:0.00%    MPKI:0.00
PC:32e27ac     Total:2      MisBP:0   MisRate:0.00%    MPKI:0.00
PC:6515838     Total:4      MisBP:0   MisRate:0.00%    MPKI:0.00
PC:6687088     Total:9      MisBP:0   MisRate:0.00%    MPKI:0.00
PC:63fa6dc     Total:6      MisBP:0   MisRate:0.00%    MPKI:0.00
PC:36c9420     Total:1      MisBP:0   MisRate:0.00%    MPKI:0.00
PC:5670ff0     Total:1      MisBP:0   MisRate:0.00%    MPKI:0.00
PC:34c6938     Total:3      MisBP:0   MisRate:0.00%    MPKI:0.00
PC:641ecb0     Total:1      MisBP:0   MisRate:0.00%    MPKI:0.00
PC:64c5418     Total:1      MisBP:0   MisRate:0.00%    MPKI:0.00
PC:641ecb4     Total:1      MisBP:0   MisRate:0.00%    MPKI:0.00
PC:64c541c     Total:2      MisBP:0   MisRate:0.00%    MPKI:0.00
PC:641ecb8     Total:1      MisBP:0   MisRate:0.00%    MPKI:0.00
PC:64c5420     Total:1      MisBP:0   MisRate:0.00%    MPKI:0.00
PC:641ecbc     Total:1      MisBP:0   MisRate:0.00%    MPKI:0.00
PC:64c5424     Total:1      MisBP:0   MisRate:0.00%    MPKI:0.00
PC:5670fe8     Total:1      MisBP:0   MisRate:0.00%    MPKI:0.00
PC:5670fec     Total:2      MisBP:0   MisRate:0.00%    MPKI:0.00
PC:1b150     Total:2      MisBP:0   MisRate:0.00%    MPKI:0.00
PC:5670ff4     Total:1      MisBP:0   MisRate:0.00%    MPKI:0.00
PC:5670ff8     Total:2      MisBP:0   MisRate:0.00%    MPKI:0.00
PC:5670ffc     Total:1      MisBP:0   MisRate:0.00%    MPKI:0.00
PC:d3b6c     Total:6558      MisBP:0   MisRate:0.00%    MPKI:0.00
PC:3b06248     Total:1      MisBP:0   MisRate:0.00%    MPKI:0.00
PC:433414c     Total:2      MisBP:0   MisRate:0.00%    MPKI:0.00
PC:56de2     Total:60298      MisBP:0   MisRate:0.00%    MPKI:0.00
PC:3b0624c     Total:1      MisBP:0   MisRate:0.00%    MPKI:0.00
PC:4334150     Total:2      MisBP:0   MisRate:0.00%    MPKI:0.00
PC:56de6     Total:60247      MisBP:0   MisRate:0.00%    MPKI:0.00
PC:a4c54     Total:3      MisBP:0   MisRate:0.00%    MPKI:0.00
PC:a4c28     Total:3      MisBP:0   MisRate:0.00%    MPKI:0.00
PC:a4c2c     Total:3      MisBP:0   MisRate:0.00%    MPKI:0.00
PC:a4c30     Total:3      MisBP:0   MisRate:0.00%    MPKI:0.00
PC:a4c34     Total:3      MisBP:0   MisRate:0.00%    MPKI:0.00
PC:a4c38     Total:3      MisBP:0   MisRate:0.00%    MPKI:0.00
PC:a4c3c     Total:3      MisBP:0   MisRate:0.00%    MPKI:0.00
PC:a4c40     Total:3      MisBP:0   MisRate:0.00%    MPKI:0.00
PC:a4c44     Total:3      MisBP:0   MisRate:0.00%    MPKI:0.00
PC:a4c48     Total:3      MisBP:0   MisRate:0.00%    MPKI:0.00
PC:a4c4c     Total:3      MisBP:0   MisRate:0.00%    MPKI:0.00
PC:a4c50     Total:3      MisBP:0   MisRate:0.00%    MPKI:0.00
PC:3b06250     Total:1      MisBP:0   MisRate:0.00%    MPKI:0.00
PC:a4c58     Total:3      MisBP:0   MisRate:0.00%    MPKI:0.00
PC:a4c5c     Total:3      MisBP:0   MisRate:0.00%    MPKI:0.00
PC:a4c60     Total:3      MisBP:0   MisRate:0.00%    MPKI:0.00
PC:a4c64     Total:3      MisBP:0   MisRate:0.00%    MPKI:0.00
PC:a4c70     Total:3      MisBP:0   MisRate:0.00%    MPKI:0.00
PC:a4c74     Total:3      MisBP:0   MisRate:0.00%    MPKI:0.00
PC:6657704     Total:1      MisBP:0   MisRate:0.00%    MPKI:0.00
PC:17262     Total:4      MisBP:0   MisRate:0.00%    MPKI:0.00
PC:3ad3b2c     Total:4      MisBP:0   MisRate:0.00%    MPKI:0.00
PC:2416d4     Total:2      MisBP:0   MisRate:0.00%    MPKI:0.00
PC:3b06278     Total:1      MisBP:0   MisRate:0.00%    MPKI:0.00
PC:3b0626c     Total:1      MisBP:0   MisRate:0.00%    MPKI:0.00
PC:4334170     Total:2      MisBP:0   MisRate:0.00%    MPKI:0.00
PC:d3b94     Total:4818      MisBP:0   MisRate:0.00%    MPKI:0.00
PC:3b06270     Total:1      MisBP:0   MisRate:0.00%    MPKI:0.00
PC:4334174     Total:2      MisBP:0   MisRate:0.00%    MPKI:0.00
PC:d3b98     Total:4818      MisBP:0   MisRate:0.00%    MPKI:0.00
PC:56e0a     Total:31939      MisBP:0   MisRate:0.00%    MPKI:0.00
PC:3b06274     Total:1      MisBP:0   MisRate:0.00%    MPKI:0.00
PC:4334178     Total:2      MisBP:0   MisRate:0.00%    MPKI:0.00
PC:d3b9c     Total:4815      MisBP:0   MisRate:0.00%    MPKI:0.00
PC:56e0e     Total:31913      MisBP:0   MisRate:0.00%    MPKI:0.00
PC:d3b90     Total:6340      MisBP:0   MisRate:0.00%    MPKI:0.00
PC:433417c     Total:2      MisBP:0   MisRate:0.00%    MPKI:0.00
PC:d3ba0     Total:4806      MisBP:0   MisRate:0.00%    MPKI:0.00
PC:56e12     Total:31624      MisBP:0   MisRate:0.00%    MPKI:0.00
PC:3b0627c     Total:1      MisBP:0   MisRate:0.00%    MPKI:0.00
PC:4334180     Total:2      MisBP:0   MisRate:0.00%    MPKI:0.00
PC:d3ba4     Total:4806      MisBP:0   MisRate:0.00%    MPKI:0.00
PC:3b06280     Total:1      MisBP:0   MisRate:0.00%    MPKI:0.00
PC:4334184     Total:2      MisBP:0   MisRate:0.00%    MPKI:0.00
PC:56e1a     Total:32167      MisBP:0   MisRate:0.00%    MPKI:0.00
PC:d3ba8     Total:4724      MisBP:0   MisRate:0.00%    MPKI:0.00
PC:4334160     Total:2      MisBP:0   MisRate:0.00%    MPKI:0.00
PC:4334154     Total:2      MisBP:0   MisRate:0.00%    MPKI:0.00
PC:56dea     Total:60196      MisBP:0   MisRate:0.00%    MPKI:0.00
PC:d3b78     Total:6537      MisBP:0   MisRate:0.00%    MPKI:0.00
PC:3b06254     Total:1      MisBP:0   MisRate:0.00%    MPKI:0.00
PC:4334158     Total:2      MisBP:0   MisRate:0.00%    MPKI:0.00
PC:56dee     Total:60094      MisBP:0   MisRate:0.00%    MPKI:0.00
PC:d3b7c     Total:6536      MisBP:0   MisRate:0.00%    MPKI:0.00
PC:3b06258     Total:1      MisBP:0   MisRate:0.00%    MPKI:0.00
PC:433415c     Total:2      MisBP:0   MisRate:0.00%    MPKI:0.00
PC:56df2     Total:60156      MisBP:0   MisRate:0.00%    MPKI:0.00
PC:3b0625c     Total:2      MisBP:0   MisRate:0.00%    MPKI:0.00
PC:a4c24     Total:3      MisBP:0   MisRate:0.00%    MPKI:0.00
PC:d3b84     Total:6340      MisBP:0   MisRate:0.00%    MPKI:0.00
PC:56df6     Total:60278      MisBP:0   MisRate:0.00%    MPKI:0.00
PC:3b06260     Total:1      MisBP:0   MisRate:0.00%    MPKI:0.00
PC:4334164     Total:2      MisBP:0   MisRate:0.00%    MPKI:0.00
PC:d3b88     Total:6340      MisBP:0   MisRate:0.00%    MPKI:0.00
PC:56dfa     Total:60274      MisBP:0   MisRate:0.00%    MPKI:0.00
PC:3b06264     Total:1      MisBP:0   MisRate:0.00%    MPKI:0.00
PC:4334168     Total:2      MisBP:0   MisRate:0.00%    MPKI:0.00
PC:3b06268     Total:1      MisBP:0   MisRate:0.00%    MPKI:0.00
PC:433416c     Total:2      MisBP:0   MisRate:0.00%    MPKI:0.00
PC:a4b46     Total:3      MisBP:0   MisRate:0.00%    MPKI:0.00
PC:36bb5b2     Total:2      MisBP:0   MisRate:0.00%    MPKI:0.00
PC:36bb5b6     Total:2      MisBP:0   MisRate:0.00%    MPKI:0.00
PC:36bb5ba     Total:2      MisBP:0   MisRate:0.00%    MPKI:0.00
PC:36bb5be     Total:2      MisBP:0   MisRate:0.00%    MPKI:0.00
PC:36bb5d8     Total:1      MisBP:0   MisRate:0.00%    MPKI:0.00
PC:36bb5dc     Total:1      MisBP:0   MisRate:0.00%    MPKI:0.00
PC:36bb5e0     Total:1      MisBP:0   MisRate:0.00%    MPKI:0.00
PC:5178a     Total:125887      MisBP:0   MisRate:0.00%    MPKI:0.00
PC:a4b3e     Total:3      MisBP:0   MisRate:0.00%    MPKI:0.00
PC:5178e     Total:125887      MisBP:0   MisRate:0.00%    MPKI:0.00
PC:a4b42     Total:3      MisBP:0   MisRate:0.00%    MPKI:0.00
PC:36bb5ae     Total:2      MisBP:0   MisRate:0.00%    MPKI:0.00
PC:51796     Total:125887      MisBP:0   MisRate:0.00%    MPKI:0.00
PC:a4b4a     Total:3      MisBP:0   MisRate:0.00%    MPKI:0.00
PC:5179a     Total:125887      MisBP:0   MisRate:0.00%    MPKI:0.00
PC:a4b4e     Total:3      MisBP:0   MisRate:0.00%    MPKI:0.00
PC:5179e     Total:125848      MisBP:0   MisRate:0.00%    MPKI:0.00
PC:a4b52     Total:3      MisBP:0   MisRate:0.00%    MPKI:0.00
PC:517a2     Total:125848      MisBP:0   MisRate:0.00%    MPKI:0.00
PC:a4b56     Total:3      MisBP:0   MisRate:0.00%    MPKI:0.00
PC:517b2     Total:379      MisBP:0   MisRate:0.00%    MPKI:0.00
PC:a4b66     Total:2      MisBP:0   MisRate:0.00%    MPKI:0.00
PC:5e58938     Total:1      MisBP:0   MisRate:0.00%    MPKI:0.00
PC:36bb576     Total:3      MisBP:0   MisRate:0.00%    MPKI:0.00
PC:36bb578     Total:4      MisBP:0   MisRate:0.00%    MPKI:0.00
PC:5e5892c     Total:1      MisBP:0   MisRate:0.00%    MPKI:0.00
PC:36bb57a     Total:3      MisBP:0   MisRate:0.00%    MPKI:0.00
PC:36bb57c     Total:10      MisBP:0   MisRate:0.00%    MPKI:0.00
PC:5e58930     Total:1      MisBP:0   MisRate:0.00%    MPKI:0.00
PC:36bb57e     Total:3      MisBP:0   MisRate:0.00%    MPKI:0.00
PC:36bb580     Total:3      MisBP:0   MisRate:0.00%    MPKI:0.00
PC:5e58934     Total:1      MisBP:0   MisRate:0.00%    MPKI:0.00
PC:36bb582     Total:2      MisBP:0   MisRate:0.00%    MPKI:0.00
PC:36bb584     Total:3      MisBP:0   MisRate:0.00%    MPKI:0.00
PC:517b6     Total:379      MisBP:0   MisRate:0.00%    MPKI:0.00
PC:36bb586     Total:2      MisBP:0   MisRate:0.00%    MPKI:0.00
PC:5e5893c     Total:1      MisBP:0   MisRate:0.00%    MPKI:0.00
PC:36bb58a     Total:2      MisBP:0   MisRate:0.00%    MPKI:0.00
PC:36bb58e     Total:2      MisBP:0   MisRate:0.00%    MPKI:0.00
PC:36bb592     Total:2      MisBP:0   MisRate:0.00%    MPKI:0.00
PC:36bb59a     Total:2      MisBP:0   MisRate:0.00%    MPKI:0.00
PC:36bb59e     Total:2      MisBP:0   MisRate:0.00%    MPKI:0.00
PC:36bb5a2     Total:2      MisBP:0   MisRate:0.00%    MPKI:0.00
PC:36bb5a6     Total:2      MisBP:0   MisRate:0.00%    MPKI:0.00
PC:36bb5aa     Total:2      MisBP:0   MisRate:0.00%    MPKI:0.00
PC:5180e     Total:160      MisBP:0   MisRate:0.00%    MPKI:0.00
PC:a4bb2     Total:3      MisBP:0   MisRate:0.00%    MPKI:0.00
PC:116326c     Total:1      MisBP:0   MisRate:0.00%    MPKI:0.00
PC:51802     Total:4049      MisBP:0   MisRate:0.00%    MPKI:0.00
PC:a4bb6     Total:3      MisBP:0   MisRate:0.00%    MPKI:0.00
PC:1163270     Total:1      MisBP:0   MisRate:0.00%    MPKI:0.00
PC:51806     Total:172082      MisBP:0   MisRate:0.00%    MPKI:0.00
PC:a4bba     Total:3      MisBP:0   MisRate:0.00%    MPKI:0.00
PC:1163274     Total:1      MisBP:0   MisRate:0.00%    MPKI:0.00
PC:5180a     Total:186      MisBP:0   MisRate:0.00%    MPKI:0.00
PC:a4bbe     Total:3      MisBP:0   MisRate:0.00%    MPKI:0.00
PC:1163278     Total:1      MisBP:0   MisRate:0.00%    MPKI:0.00
PC:517fe     Total:176782      MisBP:0   MisRate:0.00%    MPKI:0.00
PC:a4bc2     Total:3      MisBP:0   MisRate:0.00%    MPKI:0.00
PC:116327c     Total:1      MisBP:0   MisRate:0.00%    MPKI:0.00
PC:51812     Total:2      MisBP:0   MisRate:0.00%    MPKI:0.00
PC:a4bc6     Total:3      MisBP:0   MisRate:0.00%    MPKI:0.00
PC:51816     Total:2      MisBP:0   MisRate:0.00%    MPKI:0.00
PC:a4bca     Total:3      MisBP:0   MisRate:0.00%    MPKI:0.00
PC:a4c14     Total:3      MisBP:0   MisRate:0.00%    MPKI:0.00
PC:a4c18     Total:3      MisBP:0   MisRate:0.00%    MPKI:0.00
PC:a4c1c     Total:3      MisBP:0   MisRate:0.00%    MPKI:0.00
PC:a4c20     Total:3      MisBP:0   MisRate:0.00%    MPKI:0.00
PC:517d2     Total:124229      MisBP:0   MisRate:0.00%    MPKI:0.00
PC:a4b6a     Total:5      MisBP:0   MisRate:0.00%    MPKI:0.00
PC:517ba     Total:379      MisBP:0   MisRate:0.00%    MPKI:0.00
PC:a4b6e     Total:5      MisBP:0   MisRate:0.00%    MPKI:0.00
PC:517be     Total:1      MisBP:0   MisRate:0.00%    MPKI:0.00
PC:a4b72     Total:5      MisBP:0   MisRate:0.00%    MPKI:0.00
PC:517c6     Total:124590      MisBP:0   MisRate:0.00%    MPKI:0.00
PC:a4b7a     Total:2      MisBP:0   MisRate:0.00%    MPKI:0.00
PC:517ca     Total:124581      MisBP:0   MisRate:0.00%    MPKI:0.00
PC:a4b7e     Total:3      MisBP:0   MisRate:0.00%    MPKI:0.00
PC:a4b82     Total:3      MisBP:0   MisRate:0.00%    MPKI:0.00
PC:3b06284     Total:1      MisBP:0   MisRate:0.00%    MPKI:0.00
PC:a4b86     Total:3      MisBP:0   MisRate:0.00%    MPKI:0.00
PC:517d6     Total:122252      MisBP:0   MisRate:0.00%    MPKI:0.00
PC:a4b8a     Total:3      MisBP:0   MisRate:0.00%    MPKI:0.00
PC:517da     Total:122131      MisBP:0   MisRate:0.00%    MPKI:0.00
PC:28cbce4     Total:1      MisBP:0   MisRate:0.00%    MPKI:0.00
PC:a4b8e     Total:3      MisBP:0   MisRate:0.00%    MPKI:0.00
PC:1163264     Total:1      MisBP:0   MisRate:0.00%    MPKI:0.00
PC:517fa     Total:100253      MisBP:0   MisRate:0.00%    MPKI:0.00
PC:a4bae     Total:3      MisBP:0   MisRate:0.00%    MPKI:0.00
PC:1163268     Total:1      MisBP:0   MisRate:0.00%    MPKI:0.00
PC:63c1f4     Total:10      MisBP:0   MisRate:0.00%    MPKI:0.00
PC:3aadf54     Total:1      MisBP:0   MisRate:0.00%    MPKI:0.00
PC:63c1e0     Total:10      MisBP:0   MisRate:0.00%    MPKI:0.00
PC:3aadf58     Total:1      MisBP:0   MisRate:0.00%    MPKI:0.00
PC:63c1e4     Total:10      MisBP:0   MisRate:0.00%    MPKI:0.00
PC:3aadf5c     Total:1      MisBP:0   MisRate:0.00%    MPKI:0.00
PC:63c1e8     Total:10      MisBP:0   MisRate:0.00%    MPKI:0.00
PC:3aadf60     Total:1      MisBP:0   MisRate:0.00%    MPKI:0.00
PC:63c1ec     Total:10      MisBP:0   MisRate:0.00%    MPKI:0.00
PC:3aadf64     Total:1      MisBP:0   MisRate:0.00%    MPKI:0.00
PC:63c1f0     Total:10      MisBP:0   MisRate:0.00%    MPKI:0.00
PC:3aadf68     Total:1      MisBP:0   MisRate:0.00%    MPKI:0.00
PC:63c1dc     Total:10      MisBP:0   MisRate:0.00%    MPKI:0.00
PC:3aadf6c     Total:1      MisBP:0   MisRate:0.00%    MPKI:0.00
PC:63c1f8     Total:10      MisBP:0   MisRate:0.00%    MPKI:0.00
PC:3aadf70     Total:1      MisBP:0   MisRate:0.00%    MPKI:0.00
PC:63c1fc     Total:10      MisBP:0   MisRate:0.00%    MPKI:0.00
PC:3aadf74     Total:1      MisBP:0   MisRate:0.00%    MPKI:0.00
PC:63c200     Total:9      MisBP:0   MisRate:0.00%    MPKI:0.00
PC:3aadf78     Total:1      MisBP:0   MisRate:0.00%    MPKI:0.00
PC:63c204     Total:9      MisBP:0   MisRate:0.00%    MPKI:0.00
PC:3aadf7c     Total:1      MisBP:0   MisRate:0.00%    MPKI:0.00
PC:63c208     Total:9      MisBP:0   MisRate:0.00%    MPKI:0.00
PC:3aadf3c     Total:1      MisBP:0   MisRate:0.00%    MPKI:0.00
PC:63c1b0     Total:11      MisBP:0   MisRate:0.00%    MPKI:0.00
PC:3aadf28     Total:1      MisBP:0   MisRate:0.00%    MPKI:0.00
PC:63c1b4     Total:11      MisBP:0   MisRate:0.00%    MPKI:0.00
PC:3aadf2c     Total:1      MisBP:0   MisRate:0.00%    MPKI:0.00
PC:63c1b8     Total:11      MisBP:0   MisRate:0.00%    MPKI:0.00
PC:3aadf30     Total:1      MisBP:0   MisRate:0.00%    MPKI:0.00
PC:63c1bc     Total:11      MisBP:0   MisRate:0.00%    MPKI:0.00
PC:3aadf34     Total:1      MisBP:0   MisRate:0.00%    MPKI:0.00
PC:63c1c0     Total:10      MisBP:0   MisRate:0.00%    MPKI:0.00
PC:3aadf38     Total:1      MisBP:0   MisRate:0.00%    MPKI:0.00
PC:63c1c4     Total:10      MisBP:0   MisRate:0.00%    MPKI:0.00
PC:3ac4b3c     Total:1      MisBP:0   MisRate:0.00%    MPKI:0.00
PC:63c1c8     Total:10      MisBP:0   MisRate:0.00%    MPKI:0.00
PC:3aadf40     Total:1      MisBP:0   MisRate:0.00%    MPKI:0.00
PC:63c1cc     Total:10      MisBP:0   MisRate:0.00%    MPKI:0.00
PC:3aadf44     Total:1      MisBP:0   MisRate:0.00%    MPKI:0.00
PC:63c1d0     Total:10      MisBP:0   MisRate:0.00%    MPKI:0.00
PC:3aadf48     Total:1      MisBP:0   MisRate:0.00%    MPKI:0.00
PC:63c1d4     Total:10      MisBP:0   MisRate:0.00%    MPKI:0.00
PC:3aadf4c     Total:1      MisBP:0   MisRate:0.00%    MPKI:0.00
PC:63c1d8     Total:10      MisBP:0   MisRate:0.00%    MPKI:0.00
PC:3aadf50     Total:1      MisBP:0   MisRate:0.00%    MPKI:0.00
PC:663d7a4     Total:1      MisBP:0   MisRate:0.00%    MPKI:0.00
PC:56d7f14     Total:1      MisBP:0   MisRate:0.00%    MPKI:0.00
PC:663d794     Total:1      MisBP:0   MisRate:0.00%    MPKI:0.00
PC:63d9338     Total:1      MisBP:0   MisRate:0.00%    MPKI:0.00
PC:2b46ee0     Total:28      MisBP:0   MisRate:0.00%    MPKI:0.00
PC:56d7f18     Total:1      MisBP:0   MisRate:0.00%    MPKI:0.00
PC:663d798     Total:1      MisBP:0   MisRate:0.00%    MPKI:0.00
PC:663d79c     Total:1      MisBP:0   MisRate:0.00%    MPKI:0.00
PC:663d7a0     Total:1      MisBP:0   MisRate:0.00%    MPKI:0.00
PC:44f6378     Total:2      MisBP:0   MisRate:0.00%    MPKI:0.00
PC:2b46eec     Total:14      MisBP:0   MisRate:0.00%    MPKI:0.00
PC:56d7f24     Total:1      MisBP:0   MisRate:0.00%    MPKI:0.00
PC:2b46edc     Total:14      MisBP:0   MisRate:0.00%    MPKI:0.00
PC:44f637c     Total:2      MisBP:0   MisRate:0.00%    MPKI:0.00
PC:2b46ef0     Total:14      MisBP:0   MisRate:0.00%    MPKI:0.00
PC:56d7f28     Total:1      MisBP:0   MisRate:0.00%    MPKI:0.00
PC:663d7a8     Total:1      MisBP:0   MisRate:0.00%    MPKI:0.00
PC:44f6380     Total:2      MisBP:0   MisRate:0.00%    MPKI:0.00
PC:2b46ef4     Total:14      MisBP:0   MisRate:0.00%    MPKI:0.00
PC:56d7f2c     Total:1      MisBP:0   MisRate:0.00%    MPKI:0.00
PC:663d7ac     Total:3      MisBP:0   MisRate:0.00%    MPKI:0.00
PC:44f6384     Total:4      MisBP:0   MisRate:0.00%    MPKI:0.00
PC:2b46ef8     Total:14      MisBP:0   MisRate:0.00%    MPKI:0.00
PC:15147f4     Total:1      MisBP:0   MisRate:0.00%    MPKI:0.00
PC:189b6e0     Total:1      MisBP:0   MisRate:0.00%    MPKI:0.00
PC:15147e0     Total:1      MisBP:0   MisRate:0.00%    MPKI:0.00
PC:17df9ac     Total:1      MisBP:0   MisRate:0.00%    MPKI:0.00
PC:36c2978     Total:1      MisBP:0   MisRate:0.00%    MPKI:0.00
PC:15147e4     Total:1      MisBP:0   MisRate:0.00%    MPKI:0.00
PC:17df9b0     Total:1      MisBP:0   MisRate:0.00%    MPKI:0.00
PC:36c297c     Total:1      MisBP:0   MisRate:0.00%    MPKI:0.00
PC:15147e8     Total:1      MisBP:0   MisRate:0.00%    MPKI:0.00
PC:15147ec     Total:1      MisBP:0   MisRate:0.00%    MPKI:0.00
PC:15147f0     Total:1      MisBP:0   MisRate:0.00%    MPKI:0.00
PC:3aadf24     Total:1      MisBP:0   MisRate:0.00%    MPKI:0.00
PC:15147f8     Total:1      MisBP:0   MisRate:0.00%    MPKI:0.00
PC:15147fc     Total:1      MisBP:0   MisRate:0.00%    MPKI:0.00
PC:63d9328     Total:1      MisBP:0   MisRate:0.00%    MPKI:0.00
PC:56d7f08     Total:1      MisBP:0   MisRate:0.00%    MPKI:0.00
PC:63d932c     Total:1      MisBP:0   MisRate:0.00%    MPKI:0.00
PC:56d7f0c     Total:2      MisBP:0   MisRate:0.00%    MPKI:0.00
PC:63d9330     Total:1      MisBP:0   MisRate:0.00%    MPKI:0.00
PC:56d7f10     Total:1      MisBP:0   MisRate:0.00%    MPKI:0.00
PC:663d790     Total:1      MisBP:0   MisRate:0.00%    MPKI:0.00
PC:63d9334     Total:1      MisBP:0   MisRate:0.00%    MPKI:0.00
PC:56e3a     Total:29700      MisBP:0   MisRate:0.00%    MPKI:0.00
PC:150381c     Total:2      MisBP:0   MisRate:0.00%    MPKI:0.00
PC:d3bc0     Total:12078      MisBP:0   MisRate:0.00%    MPKI:0.00
PC:56e32     Total:29794      MisBP:0   MisRate:0.00%    MPKI:0.00
PC:3b0629c     Total:1      MisBP:0   MisRate:0.00%    MPKI:0.00
PC:43341a0     Total:4      MisBP:0   MisRate:0.00%    MPKI:0.00
PC:1503820     Total:2      MisBP:0   MisRate:0.00%    MPKI:0.00
PC:d3bc4     Total:22748      MisBP:0   MisRate:0.00%    MPKI:0.00
PC:56e36     Total:29794      MisBP:0   MisRate:0.00%    MPKI:0.00
PC:3b062a0     Total:1      MisBP:0   MisRate:0.00%    MPKI:0.00
PC:43341a4     Total:4      MisBP:0   MisRate:0.00%    MPKI:0.00
PC:1503824     Total:2      MisBP:0   MisRate:0.00%    MPKI:0.00
PC:433419c     Total:2      MisBP:0   MisRate:0.00%    MPKI:0.00
PC:3b062a4     Total:1      MisBP:0   MisRate:0.00%    MPKI:0.00
PC:22dd08     Total:1      MisBP:0   MisRate:0.00%    MPKI:0.00
PC:43341a8     Total:2      MisBP:0   MisRate:0.00%    MPKI:0.00
PC:1503828     Total:2      MisBP:0   MisRate:0.00%    MPKI:0.00
PC:56e3e     Total:29699      MisBP:0   MisRate:0.00%    MPKI:0.00
PC:3b062a8     Total:1      MisBP:0   MisRate:0.00%    MPKI:0.00
PC:22dd0c     Total:1      MisBP:0   MisRate:0.00%    MPKI:0.00
PC:43341ac     Total:2      MisBP:0   MisRate:0.00%    MPKI:0.00
PC:150382c     Total:2      MisBP:0   MisRate:0.00%    MPKI:0.00
PC:56e42     Total:176809      MisBP:0   MisRate:0.00%    MPKI:0.00
PC:d3bb4     Total:4653      MisBP:0   MisRate:0.00%    MPKI:0.00
PC:4334188     Total:2      MisBP:0   MisRate:0.00%    MPKI:0.00
PC:1503808     Total:2      MisBP:0   MisRate:0.00%    MPKI:0.00
PC:d3bac     Total:4680      MisBP:0   MisRate:0.00%    MPKI:0.00
PC:3b06288     Total:1      MisBP:0   MisRate:0.00%    MPKI:0.00
PC:433418c     Total:2      MisBP:0   MisRate:0.00%    MPKI:0.00
PC:150380c     Total:2      MisBP:0   MisRate:0.00%    MPKI:0.00
PC:d3bb0     Total:4663      MisBP:0   MisRate:0.00%    MPKI:0.00
PC:3b0628c     Total:1      MisBP:0   MisRate:0.00%    MPKI:0.00
PC:4334190     Total:2      MisBP:0   MisRate:0.00%    MPKI:0.00
PC:1503810     Total:2      MisBP:0   MisRate:0.00%    MPKI:0.00
PC:56e26     Total:29810      MisBP:0   MisRate:0.00%    MPKI:0.00
PC:3b062ac     Total:1      MisBP:0   MisRate:0.00%    MPKI:0.00
PC:3b06290     Total:1      MisBP:0   MisRate:0.00%    MPKI:0.00
PC:4334194     Total:4      MisBP:0   MisRate:0.00%    MPKI:0.00
PC:1503814     Total:2      MisBP:0   MisRate:0.00%    MPKI:0.00
PC:d3bb8     Total:4568      MisBP:0   MisRate:0.00%    MPKI:0.00
PC:56e2a     Total:29809      MisBP:0   MisRate:0.00%    MPKI:0.00
PC:3b06294     Total:1      MisBP:0   MisRate:0.00%    MPKI:0.00
PC:4334198     Total:2      MisBP:0   MisRate:0.00%    MPKI:0.00
PC:1503818     Total:2      MisBP:0   MisRate:0.00%    MPKI:0.00
PC:56e2e     Total:29808      MisBP:0   MisRate:0.00%    MPKI:0.00
PC:3b06298     Total:1      MisBP:0   MisRate:0.00%    MPKI:0.00
PC:3aadf10     Total:1      MisBP:0   MisRate:0.00%    MPKI:0.00
PC:474262c     Total:2      MisBP:0   MisRate:0.00%    MPKI:0.00
PC:63c18c     Total:11      MisBP:0   MisRate:0.00%    MPKI:0.00
PC:3aadf04     Total:1      MisBP:0   MisRate:0.00%    MPKI:0.00
PC:4742630     Total:1      MisBP:0   MisRate:0.00%    MPKI:0.00
PC:63c190     Total:11      MisBP:0   MisRate:0.00%    MPKI:0.00
PC:3aadf08     Total:1      MisBP:0   MisRate:0.00%    MPKI:0.00
PC:4742634     Total:1      MisBP:0   MisRate:0.00%    MPKI:0.00
PC:63c194     Total:11      MisBP:0   MisRate:0.00%    MPKI:0.00
PC:3aadf0c     Total:1      MisBP:0   MisRate:0.00%    MPKI:0.00
PC:4742638     Total:1      MisBP:0   MisRate:0.00%    MPKI:0.00
PC:63c198     Total:11      MisBP:0   MisRate:0.00%    MPKI:0.00
PC:3aadf00     Total:1      MisBP:0   MisRate:0.00%    MPKI:0.00
PC:474263c     Total:1      MisBP:0   MisRate:0.00%    MPKI:0.00
PC:63c19c     Total:11      MisBP:0   MisRate:0.00%    MPKI:0.00
PC:3aadf14     Total:2      MisBP:0   MisRate:0.00%    MPKI:0.00
PC:63c1a0     Total:88      MisBP:0   MisRate:0.00%    MPKI:0.00
PC:3aadf18     Total:1      MisBP:0   MisRate:0.00%    MPKI:0.00
PC:63c1a4     Total:11      MisBP:0   MisRate:0.00%    MPKI:0.00
PC:3aadf1c     Total:1      MisBP:0   MisRate:0.00%    MPKI:0.00
PC:63c1a8     Total:11      MisBP:0   MisRate:0.00%    MPKI:0.00
PC:3aadf20     Total:1      MisBP:0   MisRate:0.00%    MPKI:0.00
PC:63c1ac     Total:11      MisBP:0   MisRate:0.00%    MPKI:0.00
PC:14da74c     Total:2      MisBP:0   MisRate:0.00%    MPKI:0.00
PC:22dd10     Total:1      MisBP:0   MisRate:0.00%    MPKI:0.00
PC:43341b0     Total:2      MisBP:0   MisRate:0.00%    MPKI:0.00
PC:1503830     Total:2      MisBP:0   MisRate:0.00%    MPKI:0.00
PC:3b062b0     Total:1      MisBP:0   MisRate:0.00%    MPKI:0.00
PC:22dd14     Total:1      MisBP:0   MisRate:0.00%    MPKI:0.00
PC:43341b4     Total:2      MisBP:0   MisRate:0.00%    MPKI:0.00
PC:1503834     Total:2      MisBP:0   MisRate:0.00%    MPKI:0.00
PC:3b062b4     Total:1      MisBP:0   MisRate:0.00%    MPKI:0.00
PC:22dd18     Total:1      MisBP:0   MisRate:0.00%    MPKI:0.00
PC:43341b8     Total:2      MisBP:0   MisRate:0.00%    MPKI:0.00
PC:32e118c     Total:1      MisBP:0   MisRate:0.00%    MPKI:0.00
PC:1503838     Total:2      MisBP:0   MisRate:0.00%    MPKI:0.00
PC:3b062b8     Total:1      MisBP:0   MisRate:0.00%    MPKI:0.00
PC:22dd1c     Total:1      MisBP:0   MisRate:0.00%    MPKI:0.00
PC:43341bc     Total:2      MisBP:0   MisRate:0.00%    MPKI:0.00
PC:14da750     Total:4      MisBP:0   MisRate:0.00%    MPKI:0.00
PC:150383c     Total:2      MisBP:0   MisRate:0.00%    MPKI:0.00
PC:56e52     Total:2429      MisBP:0   MisRate:0.00%    MPKI:0.00
PC:3b062bc     Total:1      MisBP:0   MisRate:0.00%    MPKI:0.00
PC:14da754     Total:2      MisBP:0   MisRate:0.00%    MPKI:0.00
PC:1503840     Total:2      MisBP:0   MisRate:0.00%    MPKI:0.00
PC:638ede8     Total:1      MisBP:0   MisRate:0.00%    MPKI:0.00
PC:159cdd4     Total:1      MisBP:0   MisRate:0.00%    MPKI:0.00
PC:638ede0     Total:1      MisBP:0   MisRate:0.00%    MPKI:0.00
PC:a46fe     Total:156      MisBP:0   MisRate:0.00%    MPKI:0.00
PC:159cdd8     Total:1      MisBP:0   MisRate:0.00%    MPKI:0.00
PC:347c2ac     Total:1      MisBP:0   MisRate:0.00%    MPKI:0.00
PC:5e6d060     Total:1      MisBP:0   MisRate:0.00%    MPKI:0.00
PC:638ede4     Total:1      MisBP:0   MisRate:0.00%    MPKI:0.00
PC:a4702     Total:156      MisBP:0   MisRate:0.00%    MPKI:0.00
PC:159cddc     Total:1      MisBP:0   MisRate:0.00%    MPKI:0.00
PC:347c2b0     Total:1      MisBP:0   MisRate:0.00%    MPKI:0.00
PC:5e6d064     Total:1      MisBP:0   MisRate:0.00%    MPKI:0.00
PC:a46fa     Total:167      MisBP:0   MisRate:0.00%    MPKI:0.00
PC:a4706     Total:156      MisBP:0   MisRate:0.00%    MPKI:0.00
PC:159cde0     Total:1      MisBP:0   MisRate:0.00%    MPKI:0.00
PC:347c2b4     Total:1      MisBP:0   MisRate:0.00%    MPKI:0.00
PC:5e6d068     Total:1      MisBP:0   MisRate:0.00%    MPKI:0.00
PC:638edec     Total:1      MisBP:0   MisRate:0.00%    MPKI:0.00
PC:a470a     Total:154      MisBP:0   MisRate:0.00%    MPKI:0.00
PC:159cde4     Total:1      MisBP:0   MisRate:0.00%    MPKI:0.00
PC:347c2b8     Total:1      MisBP:0   MisRate:0.00%    MPKI:0.00
PC:5e6d06c     Total:1      MisBP:0   MisRate:0.00%    MPKI:0.00
PC:638edf0     Total:1      MisBP:0   MisRate:0.00%    MPKI:0.00
PC:638edd0     Total:1      MisBP:0   MisRate:0.00%    MPKI:0.00
PC:638edc4     Total:1      MisBP:0   MisRate:0.00%    MPKI:0.00
PC:a46e2     Total:169      MisBP:0   MisRate:0.00%    MPKI:0.00
PC:5132e     Total:1      MisBP:0   MisRate:0.00%    MPKI:0.00
PC:159cdbc     Total:2      MisBP:0   MisRate:0.00%    MPKI:0.00
PC:638edc8     Total:1      MisBP:0   MisRate:0.00%    MPKI:0.00
PC:a46e6     Total:169      MisBP:0   MisRate:0.00%    MPKI:0.00
PC:159cdc0     Total:1      MisBP:0   MisRate:0.00%    MPKI:0.00
PC:638edcc     Total:3      MisBP:0   MisRate:0.00%    MPKI:0.00
PC:a46ea     Total:168      MisBP:0   MisRate:0.00%    MPKI:0.00
PC:51336     Total:1      MisBP:0   MisRate:0.00%    MPKI:0.00
PC:159cdc4     Total:1      MisBP:0   MisRate:0.00%    MPKI:0.00
PC:a470e     Total:154      MisBP:0   MisRate:0.00%    MPKI:0.00
PC:a46ee     Total:168      MisBP:0   MisRate:0.00%    MPKI:0.00
PC:5133a     Total:5      MisBP:0   MisRate:0.00%    MPKI:0.00
PC:159cdc8     Total:1      MisBP:0   MisRate:0.00%    MPKI:0.00
PC:638edd4     Total:2      MisBP:0   MisRate:0.00%    MPKI:0.00
PC:a46f2     Total:168      MisBP:0   MisRate:0.00%    MPKI:0.00
PC:159cdcc     Total:1      MisBP:0   MisRate:0.00%    MPKI:0.00
PC:638edd8     Total:2      MisBP:0   MisRate:0.00%    MPKI:0.00
PC:a46f6     Total:168      MisBP:0   MisRate:0.00%    MPKI:0.00
PC:159cdd0     Total:1      MisBP:0   MisRate:0.00%    MPKI:0.00
PC:638eddc     Total:2      MisBP:0   MisRate:0.00%    MPKI:0.00
PC:638ee14     Total:1      MisBP:0   MisRate:0.00%    MPKI:0.00
PC:a4726     Total:6      MisBP:0   MisRate:0.00%    MPKI:0.00
PC:159ce00     Total:1      MisBP:0   MisRate:0.00%    MPKI:0.00
PC:5e6d088     Total:1      MisBP:0   MisRate:0.00%    MPKI:0.00
PC:638ee0c     Total:1      MisBP:0   MisRate:0.00%    MPKI:0.00
PC:a472a     Total:6      MisBP:0   MisRate:0.00%    MPKI:0.00
PC:159ce04     Total:1      MisBP:0   MisRate:0.00%    MPKI:0.00
PC:5e6d08c     Total:1      MisBP:0   MisRate:0.00%    MPKI:0.00
PC:638ee10     Total:1      MisBP:0   MisRate:0.00%    MPKI:0.00
PC:a472e     Total:6      MisBP:0   MisRate:0.00%    MPKI:0.00
PC:159ce08     Total:1      MisBP:0   MisRate:0.00%    MPKI:0.00
PC:5e6d090     Total:1      MisBP:0   MisRate:0.00%    MPKI:0.00
PC:638ee08     Total:1      MisBP:0   MisRate:0.00%    MPKI:0.00
PC:a4732     Total:6      MisBP:0   MisRate:0.00%    MPKI:0.00
PC:159ce0c     Total:1      MisBP:0   MisRate:0.00%    MPKI:0.00
PC:5e6d094     Total:1      MisBP:0   MisRate:0.00%    MPKI:0.00
PC:638ee18     Total:1      MisBP:0   MisRate:0.00%    MPKI:0.00
PC:a4736     Total:6      MisBP:0   MisRate:0.00%    MPKI:0.00
PC:159ce10     Total:1      MisBP:0   MisRate:0.00%    MPKI:0.00
PC:5e6d098     Total:1      MisBP:0   MisRate:0.00%    MPKI:0.00
PC:638ee2c     Total:1      MisBP:0   MisRate:0.00%    MPKI:0.00
PC:159ce24     Total:1      MisBP:0   MisRate:0.00%    MPKI:0.00
PC:5e6d0ac     Total:1      MisBP:0   MisRate:0.00%    MPKI:0.00
PC:638edfc     Total:1      MisBP:0   MisRate:0.00%    MPKI:0.00
PC:159cde8     Total:1      MisBP:0   MisRate:0.00%    MPKI:0.00
PC:347c2bc     Total:1      MisBP:0   MisRate:0.00%    MPKI:0.00
PC:5e6d070     Total:1      MisBP:0   MisRate:0.00%    MPKI:0.00
PC:638edf4     Total:1      MisBP:0   MisRate:0.00%    MPKI:0.00
PC:a4712     Total:152      MisBP:0   MisRate:0.00%    MPKI:0.00
PC:159cdec     Total:1      MisBP:0   MisRate:0.00%    MPKI:0.00
PC:5e6d074     Total:1      MisBP:0   MisRate:0.00%    MPKI:0.00
PC:638edf8     Total:1      MisBP:0   MisRate:0.00%    MPKI:0.00
PC:a4716     Total:150      MisBP:0   MisRate:0.00%    MPKI:0.00
PC:159cdf0     Total:1      MisBP:0   MisRate:0.00%    MPKI:0.00
PC:5e6d078     Total:2      MisBP:0   MisRate:0.00%    MPKI:0.00
PC:159cdb8     Total:2      MisBP:0   MisRate:0.00%    MPKI:0.00
PC:a471a     Total:150      MisBP:0   MisRate:0.00%    MPKI:0.00
PC:159cdf4     Total:1      MisBP:0   MisRate:0.00%    MPKI:0.00
PC:5e6d07c     Total:3      MisBP:0   MisRate:0.00%    MPKI:0.00
PC:638ee00     Total:1      MisBP:0   MisRate:0.00%    MPKI:0.00
PC:a471e     Total:138      MisBP:0   MisRate:0.00%    MPKI:0.00
PC:159cdf8     Total:1      MisBP:0   MisRate:0.00%    MPKI:0.00
PC:5e6d080     Total:1      MisBP:0   MisRate:0.00%    MPKI:0.00
PC:638ee04     Total:2      MisBP:0   MisRate:0.00%    MPKI:0.00
PC:159cdfc     Total:1      MisBP:0   MisRate:0.00%    MPKI:0.00
PC:5e6d084     Total:1      MisBP:0   MisRate:0.00%    MPKI:0.00
PC:34caa3c     Total:3      MisBP:0   MisRate:0.00%    MPKI:0.00
PC:40a8e5c     Total:7      MisBP:0   MisRate:0.00%    MPKI:0.00
PC:34caa28     Total:3      MisBP:0   MisRate:0.00%    MPKI:0.00
PC:40a8e60     Total:9      MisBP:0   MisRate:0.00%    MPKI:0.00
PC:34caa2c     Total:3      MisBP:0   MisRate:0.00%    MPKI:0.00
PC:40a8e64     Total:7      MisBP:0   MisRate:0.00%    MPKI:0.00
PC:34caa30     Total:3      MisBP:0   MisRate:0.00%    MPKI:0.00
PC:40a8e68     Total:9      MisBP:0   MisRate:0.00%    MPKI:0.00
PC:34caa34     Total:3      MisBP:0   MisRate:0.00%    MPKI:0.00
PC:40a8e6c     Total:7      MisBP:0   MisRate:0.00%    MPKI:0.00
PC:34caa38     Total:3      MisBP:0   MisRate:0.00%    MPKI:0.00
PC:40a8e70     Total:7      MisBP:0   MisRate:0.00%    MPKI:0.00
PC:34caa24     Total:3      MisBP:0   MisRate:0.00%    MPKI:0.00
PC:40a8e74     Total:7      MisBP:0   MisRate:0.00%    MPKI:0.00
PC:1a75dc0     Total:1      MisBP:0   MisRate:0.00%    MPKI:0.00
PC:47fa430     Total:2      MisBP:0   MisRate:0.00%    MPKI:0.00
PC:1a75dc4     Total:1      MisBP:0   MisRate:0.00%    MPKI:0.00
PC:47fa434     Total:4      MisBP:0   MisRate:0.00%    MPKI:0.00
PC:1a75dc8     Total:1      MisBP:0   MisRate:0.00%    MPKI:0.00
PC:47fa438     Total:2      MisBP:0   MisRate:0.00%    MPKI:0.00
PC:1a75dcc     Total:1      MisBP:0   MisRate:0.00%    MPKI:0.00
PC:47fa43c     Total:2      MisBP:0   MisRate:0.00%    MPKI:0.00
PC:1a75dd0     Total:8      MisBP:0   MisRate:0.00%    MPKI:0.00
PC:3f464     Total:303      MisBP:0   MisRate:0.00%    MPKI:0.00
PC:4d5498     Total:14      MisBP:0   MisRate:0.00%    MPKI:0.00
PC:14df0c8     Total:2      MisBP:0   MisRate:0.00%    MPKI:0.00
PC:65b416c     Total:1      MisBP:0   MisRate:0.00%    MPKI:0.00
PC:4d549c     Total:14      MisBP:0   MisRate:0.00%    MPKI:0.00
PC:14df0cc     Total:4      MisBP:0   MisRate:0.00%    MPKI:0.00
PC:65b4170     Total:1      MisBP:0   MisRate:0.00%    MPKI:0.00
PC:4d54a0     Total:7      MisBP:0   MisRate:0.00%    MPKI:0.00
PC:3f444     Total:594947      MisBP:0   MisRate:0.00%    MPKI:0.00
PC:3731618     Total:1      MisBP:0   MisRate:0.00%    MPKI:0.00
PC:14df0d0     Total:2      MisBP:0   MisRate:0.00%    MPKI:0.00
PC:65b4190     Total:1      MisBP:0   MisRate:0.00%    MPKI:0.00
PC:47fa440     Total:2      MisBP:0   MisRate:0.00%    MPKI:0.00
PC:3731638     Total:1      MisBP:0   MisRate:0.00%    MPKI:0.00
PC:14df0f0     Total:2      MisBP:0   MisRate:0.00%    MPKI:0.00
PC:65b4194     Total:1      MisBP:0   MisRate:0.00%    MPKI:0.00
PC:3f468     Total:890      MisBP:0   MisRate:0.00%    MPKI:0.00
PC:373163c     Total:1      MisBP:0   MisRate:0.00%    MPKI:0.00
PC:14df0f4     Total:2      MisBP:0   MisRate:0.00%    MPKI:0.00
PC:65b4198     Total:1      MisBP:0   MisRate:0.00%    MPKI:0.00
PC:14df0f8     Total:2      MisBP:0   MisRate:0.00%    MPKI:0.00
PC:34caa20     Total:3      MisBP:0   MisRate:0.00%    MPKI:0.00
PC:40a8e58     Total:7      MisBP:0   MisRate:0.00%    MPKI:0.00
PC:5131e     Total:1      MisBP:0   MisRate:0.00%    MPKI:0.00
PC:4bd99ac     Total:1      MisBP:0   MisRate:0.00%    MPKI:0.00
PC:4bd99b0     Total:1      MisBP:0   MisRate:0.00%    MPKI:0.00
PC:4bd99b4     Total:2      MisBP:0   MisRate:0.00%    MPKI:0.00
PC:4bd99b8     Total:1      MisBP:0   MisRate:0.00%    MPKI:0.00
PC:4bd99bc     Total:1      MisBP:0   MisRate:0.00%    MPKI:0.00
PC:638edb0     Total:1      MisBP:0   MisRate:0.00%    MPKI:0.00
PC:a46ce     Total:174      MisBP:0   MisRate:0.00%    MPKI:0.00
PC:5131a     Total:1      MisBP:0   MisRate:0.00%    MPKI:0.00
PC:159cda8     Total:2      MisBP:0   MisRate:0.00%    MPKI:0.00
PC:638edb4     Total:1      MisBP:0   MisRate:0.00%    MPKI:0.00
PC:a46d2     Total:174      MisBP:0   MisRate:0.00%    MPKI:0.00
PC:4bd99a8     Total:1      MisBP:0   MisRate:0.00%    MPKI:0.00
PC:159cdac     Total:2      MisBP:0   MisRate:0.00%    MPKI:0.00
PC:638edb8     Total:1      MisBP:0   MisRate:0.00%    MPKI:0.00
PC:a46d6     Total:174      MisBP:0   MisRate:0.00%    MPKI:0.00
PC:51322     Total:7      MisBP:0   MisRate:0.00%    MPKI:0.00
PC:159cdb0     Total:2      MisBP:0   MisRate:0.00%    MPKI:0.00
PC:638edbc     Total:1      MisBP:0   MisRate:0.00%    MPKI:0.00
PC:51326     Total:1      MisBP:0   MisRate:0.00%    MPKI:0.00
PC:159cdb4     Total:2      MisBP:0   MisRate:0.00%    MPKI:0.00
PC:638edc0     Total:1      MisBP:0   MisRate:0.00%    MPKI:0.00
PC:5132a     Total:1      MisBP:0   MisRate:0.00%    MPKI:0.00
PC:1a75de8     Total:1      MisBP:0   MisRate:0.00%    MPKI:0.00
PC:1a75dd4     Total:1      MisBP:0   MisRate:0.00%    MPKI:0.00
PC:47fa444     Total:4      MisBP:0   MisRate:0.00%    MPKI:0.00
PC:1a75dd8     Total:1      MisBP:0   MisRate:0.00%    MPKI:0.00
PC:47fa448     Total:2      MisBP:0   MisRate:0.00%    MPKI:0.00
PC:1a75ddc     Total:1      MisBP:0   MisRate:0.00%    MPKI:0.00
PC:47fa44c     Total:2      MisBP:0   MisRate:0.00%    MPKI:0.00
PC:1a75de0     Total:1      MisBP:0   MisRate:0.00%    MPKI:0.00
PC:47fa450     Total:2      MisBP:0   MisRate:0.00%    MPKI:0.00
PC:1a75de4     Total:1      MisBP:0   MisRate:0.00%    MPKI:0.00
PC:47fa454     Total:2      MisBP:0   MisRate:0.00%    MPKI:0.00
PC:638ee30     Total:1      MisBP:0   MisRate:0.00%    MPKI:0.00
PC:47fa458     Total:2      MisBP:0   MisRate:0.00%    MPKI:0.00
PC:4bd9988     Total:1      MisBP:0   MisRate:0.00%    MPKI:0.00
PC:4bd998c     Total:1      MisBP:0   MisRate:0.00%    MPKI:0.00
PC:18abc     Total:1      MisBP:0   MisRate:0.00%    MPKI:0.00
PC:4bd9990     Total:1      MisBP:0   MisRate:0.00%    MPKI:0.00
PC:4bd9994     Total:1      MisBP:0   MisRate:0.00%    MPKI:0.00
PC:4bd9998     Total:2      MisBP:0   MisRate:0.00%    MPKI:0.00
PC:4bd999c     Total:1      MisBP:0   MisRate:0.00%    MPKI:0.00
PC:4bd99a0     Total:1      MisBP:0   MisRate:0.00%    MPKI:0.00
PC:4bd99a4     Total:1      MisBP:0   MisRate:0.00%    MPKI:0.00
PC:64a7924     Total:2      MisBP:0   MisRate:0.00%    MPKI:0.00
PC:660c928     Total:1      MisBP:0   MisRate:0.00%    MPKI:0.00
PC:6687bf0     Total:2      MisBP:0   MisRate:0.00%    MPKI:0.00
PC:660c92c     Total:1      MisBP:0   MisRate:0.00%    MPKI:0.00
PC:6687bf4     Total:3      MisBP:0   MisRate:0.00%    MPKI:0.00
PC:660c930     Total:1      MisBP:0   MisRate:0.00%    MPKI:0.00
PC:64a791c     Total:1      MisBP:0   MisRate:0.00%    MPKI:0.00
PC:64facd0     Total:2      MisBP:0   MisRate:0.00%    MPKI:0.00
PC:8a5120     Total:2      MisBP:0   MisRate:0.00%    MPKI:0.00
PC:64a7920     Total:2      MisBP:0   MisRate:0.00%    MPKI:0.00
PC:64facd4     Total:2      MisBP:0   MisRate:0.00%    MPKI:0.00
PC:8a5124     Total:2      MisBP:0   MisRate:0.00%    MPKI:0.00
PC:6687bec     Total:1      MisBP:0   MisRate:0.00%    MPKI:0.00
PC:64facd8     Total:18      MisBP:0   MisRate:0.00%    MPKI:0.00
PC:8a5128     Total:2      MisBP:0   MisRate:0.00%    MPKI:0.00
PC:64a7928     Total:1      MisBP:0   MisRate:0.00%    MPKI:0.00
PC:64facdc     Total:2      MisBP:0   MisRate:0.00%    MPKI:0.00
PC:8a512c     Total:2      MisBP:0   MisRate:0.00%    MPKI:0.00
PC:64a792c     Total:3      MisBP:0   MisRate:0.00%    MPKI:0.00
PC:64face0     Total:2      MisBP:0   MisRate:0.00%    MPKI:0.00
PC:8a5130     Total:2      MisBP:0   MisRate:0.00%    MPKI:0.00
PC:64a7930     Total:1      MisBP:0   MisRate:0.00%    MPKI:0.00
PC:64face4     Total:2      MisBP:0   MisRate:0.00%    MPKI:0.00
PC:4a5ac5c     Total:1      MisBP:0   MisRate:0.00%    MPKI:0.00
PC:24af0fc     Total:1      MisBP:0   MisRate:0.00%    MPKI:0.00
PC:1b862     Total:5      MisBP:0   MisRate:0.00%    MPKI:0.00
PC:6608950     Total:1      MisBP:0   MisRate:0.00%    MPKI:0.00
PC:15672f0     Total:4      MisBP:0   MisRate:0.00%    MPKI:0.00
PC:24af100     Total:1      MisBP:0   MisRate:0.00%    MPKI:0.00
PC:6608954     Total:1      MisBP:0   MisRate:0.00%    MPKI:0.00
PC:15672f4     Total:2      MisBP:0   MisRate:0.00%    MPKI:0.00
PC:24af104     Total:1      MisBP:0   MisRate:0.00%    MPKI:0.00
PC:6608958     Total:1      MisBP:0   MisRate:0.00%    MPKI:0.00
PC:15672f8     Total:2      MisBP:0   MisRate:0.00%    MPKI:0.00
PC:6575828     Total:2      MisBP:0   MisRate:0.00%    MPKI:0.00
PC:8a5134     Total:2      MisBP:0   MisRate:0.00%    MPKI:0.00
PC:6687bd8     Total:1      MisBP:0   MisRate:0.00%    MPKI:0.00
PC:660c914     Total:1      MisBP:0   MisRate:0.00%    MPKI:0.00
PC:6687bdc     Total:1      MisBP:0   MisRate:0.00%    MPKI:0.00
PC:660c918     Total:1      MisBP:0   MisRate:0.00%    MPKI:0.00
PC:6687be0     Total:1      MisBP:0   MisRate:0.00%    MPKI:0.00
PC:660c91c     Total:1      MisBP:0   MisRate:0.00%    MPKI:0.00
PC:6687be4     Total:1      MisBP:0   MisRate:0.00%    MPKI:0.00
PC:660c920     Total:1      MisBP:0   MisRate:0.00%    MPKI:0.00
PC:6687be8     Total:1      MisBP:0   MisRate:0.00%    MPKI:0.00
PC:660c924     Total:2      MisBP:0   MisRate:0.00%    MPKI:0.00
PC:b72268     Total:1      MisBP:0   MisRate:0.00%    MPKI:0.00
PC:8a515c     Total:2      MisBP:0   MisRate:0.00%    MPKI:0.00
PC:64fad10     Total:2      MisBP:0   MisRate:0.00%    MPKI:0.00
PC:8a5160     Total:2      MisBP:0   MisRate:0.00%    MPKI:0.00
PC:b72258     Total:1      MisBP:0   MisRate:0.00%    MPKI:0.00
PC:76fb4c     Total:10      MisBP:0   MisRate:0.00%    MPKI:0.00
PC:b7225c     Total:1      MisBP:0   MisRate:0.00%    MPKI:0.00
PC:76fb50     Total:80      MisBP:0   MisRate:0.00%    MPKI:0.00
PC:b72260     Total:1      MisBP:0   MisRate:0.00%    MPKI:0.00
PC:76fb54     Total:10      MisBP:0   MisRate:0.00%    MPKI:0.00
PC:b72264     Total:1      MisBP:0   MisRate:0.00%    MPKI:0.00
PC:76fb58     Total:10      MisBP:0   MisRate:0.00%    MPKI:0.00
PC:64fad0c     Total:1      MisBP:0   MisRate:0.00%    MPKI:0.00
PC:76fb5c     Total:10      MisBP:0   MisRate:0.00%    MPKI:0.00
PC:b7226c     Total:1      MisBP:0   MisRate:0.00%    MPKI:0.00
PC:76fb60     Total:10      MisBP:0   MisRate:0.00%    MPKI:0.00
PC:b72270     Total:1      MisBP:0   MisRate:0.00%    MPKI:0.00
PC:76fb64     Total:10      MisBP:0   MisRate:0.00%    MPKI:0.00
PC:b72274     Total:1      MisBP:0   MisRate:0.00%    MPKI:0.00
PC:76fb68     Total:10      MisBP:0   MisRate:0.00%    MPKI:0.00
PC:b72278     Total:1      MisBP:0   MisRate:0.00%    MPKI:0.00
PC:76fb6c     Total:10      MisBP:0   MisRate:0.00%    MPKI:0.00
PC:b7227c     Total:1      MisBP:0   MisRate:0.00%    MPKI:0.00
PC:8a5144     Total:2      MisBP:0   MisRate:0.00%    MPKI:0.00
PC:64a7934     Total:1      MisBP:0   MisRate:0.00%    MPKI:0.00
PC:64face8     Total:2      MisBP:0   MisRate:0.00%    MPKI:0.00
PC:8a5138     Total:2      MisBP:0   MisRate:0.00%    MPKI:0.00
PC:64a7938     Total:1      MisBP:0   MisRate:0.00%    MPKI:0.00
PC:64facec     Total:2      MisBP:0   MisRate:0.00%    MPKI:0.00
PC:8a513c     Total:4      MisBP:0   MisRate:0.00%    MPKI:0.00
PC:64a793c     Total:1      MisBP:0   MisRate:0.00%    MPKI:0.00
PC:64facf0     Total:2      MisBP:0   MisRate:0.00%    MPKI:0.00
PC:8a5140     Total:2      MisBP:0   MisRate:0.00%    MPKI:0.00
PC:64facf4     Total:2      MisBP:0   MisRate:0.00%    MPKI:0.00
PC:15672ec     Total:2      MisBP:0   MisRate:0.00%    MPKI:0.00
PC:64facf8     Total:2      MisBP:0   MisRate:0.00%    MPKI:0.00
PC:8a5148     Total:2      MisBP:0   MisRate:0.00%    MPKI:0.00
PC:64facfc     Total:2      MisBP:0   MisRate:0.00%    MPKI:0.00
PC:8a514c     Total:2      MisBP:0   MisRate:0.00%    MPKI:0.00
PC:64fad00     Total:4      MisBP:0   MisRate:0.00%    MPKI:0.00
PC:8a5150     Total:2      MisBP:0   MisRate:0.00%    MPKI:0.00
PC:64fad04     Total:1      MisBP:0   MisRate:0.00%    MPKI:0.00
PC:8a5154     Total:2      MisBP:0   MisRate:0.00%    MPKI:0.00
PC:64fad08     Total:1      MisBP:0   MisRate:0.00%    MPKI:0.00
PC:8a5158     Total:2      MisBP:0   MisRate:0.00%    MPKI:0.00
PC:ad732c     Total:1      MisBP:0   MisRate:0.00%    MPKI:0.00
PC:ad7304     Total:1      MisBP:0   MisRate:0.00%    MPKI:0.00
PC:63b11bc     Total:1      MisBP:0   MisRate:0.00%    MPKI:0.00
PC:ad7308     Total:1      MisBP:0   MisRate:0.00%    MPKI:0.00
PC:ad730c     Total:1      MisBP:0   MisRate:0.00%    MPKI:0.00
PC:ad7310     Total:1      MisBP:0   MisRate:0.00%    MPKI:0.00
PC:ad7314     Total:1      MisBP:0   MisRate:0.00%    MPKI:0.00
PC:ad7318     Total:1      MisBP:0   MisRate:0.00%    MPKI:0.00
PC:ad731c     Total:1      MisBP:0   MisRate:0.00%    MPKI:0.00
PC:ad7320     Total:8      MisBP:0   MisRate:0.00%    MPKI:0.00
PC:ad7324     Total:1      MisBP:0   MisRate:0.00%    MPKI:0.00
PC:ad7328     Total:1      MisBP:0   MisRate:0.00%    MPKI:0.00
PC:63b11b8     Total:2      MisBP:0   MisRate:0.00%    MPKI:0.00
PC:ad7330     Total:1      MisBP:0   MisRate:0.00%    MPKI:0.00
PC:ad7334     Total:1      MisBP:0   MisRate:0.00%    MPKI:0.00
PC:ad7338     Total:1      MisBP:0   MisRate:0.00%    MPKI:0.00
PC:ad733c     Total:1      MisBP:0   MisRate:0.00%    MPKI:0.00
PC:48beb8     Total:1      MisBP:0   MisRate:0.00%    MPKI:0.00
PC:2cdc9e8     Total:2      MisBP:0   MisRate:0.00%    MPKI:0.00
PC:656ee40     Total:1      MisBP:0   MisRate:0.00%    MPKI:0.00
PC:48bebc     Total:1      MisBP:0   MisRate:0.00%    MPKI:0.00
PC:2cdc9ec     Total:2      MisBP:0   MisRate:0.00%    MPKI:0.00
PC:656ee44     Total:1      MisBP:0   MisRate:0.00%    MPKI:0.00
PC:ad72ec     Total:2      MisBP:0   MisRate:0.00%    MPKI:0.00
PC:159ce28     Total:1      MisBP:0   MisRate:0.00%    MPKI:0.00
PC:5e6d0b0     Total:1      MisBP:0   MisRate:0.00%    MPKI:0.00
PC:638ee34     Total:1      MisBP:0   MisRate:0.00%    MPKI:0.00
PC:159ce2c     Total:1      MisBP:0   MisRate:0.00%    MPKI:0.00
PC:5e6d0b4     Total:1      MisBP:0   MisRate:0.00%    MPKI:0.00
PC:638ee38     Total:1      MisBP:0   MisRate:0.00%    MPKI:0.00
PC:159ce30     Total:1      MisBP:0   MisRate:0.00%    MPKI:0.00
PC:5e6d0b8     Total:9      MisBP:0   MisRate:0.00%    MPKI:0.00
PC:638ee3c     Total:1      MisBP:0   MisRate:0.00%    MPKI:0.00
PC:159ce34     Total:1      MisBP:0   MisRate:0.00%    MPKI:0.00
PC:5e6d0bc     Total:1      MisBP:0   MisRate:0.00%    MPKI:0.00
PC:2cdc9f0     Total:2      MisBP:0   MisRate:0.00%    MPKI:0.00
PC:63b11a4     Total:2      MisBP:0   MisRate:0.00%    MPKI:0.00
PC:ad72f0     Total:4      MisBP:0   MisRate:0.00%    MPKI:0.00
PC:63b11a8     Total:1      MisBP:0   MisRate:0.00%    MPKI:0.00
PC:ad72f4     Total:2      MisBP:0   MisRate:0.00%    MPKI:0.00
PC:63b11ac     Total:1      MisBP:0   MisRate:0.00%    MPKI:0.00
PC:ad72f8     Total:2      MisBP:0   MisRate:0.00%    MPKI:0.00
PC:63b11b0     Total:1      MisBP:0   MisRate:0.00%    MPKI:0.00
PC:ad72fc     Total:2      MisBP:0   MisRate:0.00%    MPKI:0.00
PC:63b11b4     Total:1      MisBP:0   MisRate:0.00%    MPKI:0.00
PC:ad7300     Total:1      MisBP:0   MisRate:0.00%    MPKI:0.00
PC:2cdca34     Total:2      MisBP:0   MisRate:0.00%    MPKI:0.00
PC:656ee74     Total:1      MisBP:0   MisRate:0.00%    MPKI:0.00
PC:2cdca20     Total:2      MisBP:0   MisRate:0.00%    MPKI:0.00
PC:656ee78     Total:1      MisBP:0   MisRate:0.00%    MPKI:0.00
PC:2cdca24     Total:2      MisBP:0   MisRate:0.00%    MPKI:0.00
PC:656ee7c     Total:1      MisBP:0   MisRate:0.00%    MPKI:0.00
PC:2cdca28     Total:2      MisBP:0   MisRate:0.00%    MPKI:0.00
PC:656ee80     Total:1      MisBP:0   MisRate:0.00%    MPKI:0.00
PC:2cdca2c     Total:2      MisBP:0   MisRate:0.00%    MPKI:0.00
PC:656ee84     Total:1      MisBP:0   MisRate:0.00%    MPKI:0.00
PC:2cdca30     Total:2      MisBP:0   MisRate:0.00%    MPKI:0.00
PC:656ee88     Total:1      MisBP:0   MisRate:0.00%    MPKI:0.00
PC:2cdca1c     Total:2      MisBP:0   MisRate:0.00%    MPKI:0.00
PC:656ee8c     Total:1      MisBP:0   MisRate:0.00%    MPKI:0.00
PC:2cdca38     Total:2      MisBP:0   MisRate:0.00%    MPKI:0.00
PC:656ee90     Total:1      MisBP:0   MisRate:0.00%    MPKI:0.00
PC:2cdca3c     Total:2      MisBP:0   MisRate:0.00%    MPKI:0.00
PC:656ee94     Total:1      MisBP:0   MisRate:0.00%    MPKI:0.00
PC:656ee98     Total:9      MisBP:0   MisRate:0.00%    MPKI:0.00
PC:656ee9c     Total:1      MisBP:0   MisRate:0.00%    MPKI:0.00
PC:24af0f8     Total:1      MisBP:0   MisRate:0.00%    MPKI:0.00
PC:1b85e     Total:5      MisBP:0   MisRate:0.00%    MPKI:0.00
PC:660894c     Total:1      MisBP:0   MisRate:0.00%    MPKI:0.00
PC:656ee5c     Total:3      MisBP:0   MisRate:0.00%    MPKI:0.00
PC:656ee48     Total:1      MisBP:0   MisRate:0.00%    MPKI:0.00
PC:2cdc9f4     Total:2      MisBP:0   MisRate:0.00%    MPKI:0.00
PC:656ee4c     Total:1      MisBP:0   MisRate:0.00%    MPKI:0.00
PC:2cdc9f8     Total:2      MisBP:0   MisRate:0.00%    MPKI:0.00
PC:656ee50     Total:1      MisBP:0   MisRate:0.00%    MPKI:0.00
PC:2cdc9fc     Total:2      MisBP:0   MisRate:0.00%    MPKI:0.00
PC:656ee54     Total:1      MisBP:0   MisRate:0.00%    MPKI:0.00
PC:2cdca00     Total:2      MisBP:0   MisRate:0.00%    MPKI:0.00
PC:656ee58     Total:1      MisBP:0   MisRate:0.00%    MPKI:0.00
PC:2cdca04     Total:2      MisBP:0   MisRate:0.00%    MPKI:0.00
PC:65b4168     Total:1      MisBP:0   MisRate:0.00%    MPKI:0.00
PC:2cdca08     Total:2      MisBP:0   MisRate:0.00%    MPKI:0.00
PC:656ee60     Total:1      MisBP:0   MisRate:0.00%    MPKI:0.00
PC:2cdca0c     Total:2      MisBP:0   MisRate:0.00%    MPKI:0.00
PC:656ee64     Total:1      MisBP:0   MisRate:0.00%    MPKI:0.00
PC:2cdca10     Total:2      MisBP:0   MisRate:0.00%    MPKI:0.00
PC:656ee68     Total:1      MisBP:0   MisRate:0.00%    MPKI:0.00
PC:2cdca14     Total:2      MisBP:0   MisRate:0.00%    MPKI:0.00
PC:656ee6c     Total:1      MisBP:0   MisRate:0.00%    MPKI:0.00
PC:2cdca18     Total:2      MisBP:0   MisRate:0.00%    MPKI:0.00
PC:656ee70     Total:1      MisBP:0   MisRate:0.00%    MPKI:0.00
PC:6572160     Total:1      MisBP:0   MisRate:0.00%    MPKI:0.00
PC:663ec     Total:2      MisBP:0   MisRate:0.00%    MPKI:0.00
PC:6572138     Total:1      MisBP:0   MisRate:0.00%    MPKI:0.00
PC:657213c     Total:1      MisBP:0   MisRate:0.00%    MPKI:0.00
PC:6572140     Total:1      MisBP:0   MisRate:0.00%    MPKI:0.00
PC:6572144     Total:1      MisBP:0   MisRate:0.00%    MPKI:0.00
PC:6572148     Total:1      MisBP:0   MisRate:0.00%    MPKI:0.00
PC:657214c     Total:2      MisBP:0   MisRate:0.00%    MPKI:0.00
PC:6572150     Total:2      MisBP:0   MisRate:0.00%    MPKI:0.00
PC:6572154     Total:3      MisBP:0   MisRate:0.00%    MPKI:0.00
PC:6572158     Total:1      MisBP:0   MisRate:0.00%    MPKI:0.00
PC:657215c     Total:2      MisBP:0   MisRate:0.00%    MPKI:0.00
PC:e0df74     Total:1      MisBP:0   MisRate:0.00%    MPKI:0.00
PC:6572164     Total:1      MisBP:0   MisRate:0.00%    MPKI:0.00
PC:6572168     Total:1      MisBP:0   MisRate:0.00%    MPKI:0.00
PC:657216c     Total:1      MisBP:0   MisRate:0.00%    MPKI:0.00
PC:6572170     Total:1      MisBP:0   MisRate:0.00%    MPKI:0.00
PC:6572174     Total:2      MisBP:0   MisRate:0.00%    MPKI:0.00
PC:6572178     Total:1      MisBP:0   MisRate:0.00%    MPKI:0.00
PC:657217c     Total:1      MisBP:0   MisRate:0.00%    MPKI:0.00
PC:6572180     Total:1      MisBP:0   MisRate:0.00%    MPKI:0.00
PC:6572184     Total:1      MisBP:0   MisRate:0.00%    MPKI:0.00
PC:6572188     Total:1      MisBP:0   MisRate:0.00%    MPKI:0.00
PC:663d0     Total:4      MisBP:0   MisRate:0.00%    MPKI:0.00
PC:4a05274     Total:1      MisBP:0   MisRate:0.00%    MPKI:0.00
PC:273b63c     Total:1      MisBP:0   MisRate:0.00%    MPKI:0.00
PC:4a05278     Total:1      MisBP:0   MisRate:0.00%    MPKI:0.00
PC:4a0527c     Total:1      MisBP:0   MisRate:0.00%    MPKI:0.00
PC:491fe00     Total:4      MisBP:0   MisRate:0.00%    MPKI:0.00
PC:3a7e75c     Total:1      MisBP:0   MisRate:0.00%    MPKI:0.00
PC:e0df50     Total:1      MisBP:0   MisRate:0.00%    MPKI:0.00
PC:663c8     Total:4      MisBP:0   MisRate:0.00%    MPKI:0.00
PC:e0df54     Total:1      MisBP:0   MisRate:0.00%    MPKI:0.00
PC:663cc     Total:4      MisBP:0   MisRate:0.00%    MPKI:0.00
PC:e0df58     Total:1      MisBP:0   MisRate:0.00%    MPKI:0.00
PC:6572190     Total:9      MisBP:0   MisRate:0.00%    MPKI:0.00
PC:e0df5c     Total:1      MisBP:0   MisRate:0.00%    MPKI:0.00
PC:663d4     Total:2      MisBP:0   MisRate:0.00%    MPKI:0.00
PC:e0df60     Total:1      MisBP:0   MisRate:0.00%    MPKI:0.00
PC:663d8     Total:2      MisBP:0   MisRate:0.00%    MPKI:0.00
PC:e0df68     Total:1      MisBP:0   MisRate:0.00%    MPKI:0.00
PC:663e0     Total:2      MisBP:0   MisRate:0.00%    MPKI:0.00
PC:e0df6c     Total:1      MisBP:0   MisRate:0.00%    MPKI:0.00
PC:663e4     Total:2      MisBP:0   MisRate:0.00%    MPKI:0.00
PC:e0df70     Total:1      MisBP:0   MisRate:0.00%    MPKI:0.00
PC:663e8     Total:2      MisBP:0   MisRate:0.00%    MPKI:0.00
PC:51426fc     Total:1      MisBP:0   MisRate:0.00%    MPKI:0.00
PC:5e58848     Total:2      MisBP:0   MisRate:0.00%    MPKI:0.00
PC:5e5884c     Total:4      MisBP:0   MisRate:0.00%    MPKI:0.00
PC:5e58850     Total:2      MisBP:0   MisRate:0.00%    MPKI:0.00
PC:5e58854     Total:2      MisBP:0   MisRate:0.00%    MPKI:0.00
PC:5e58874     Total:2      MisBP:0   MisRate:0.00%    MPKI:0.00
PC:5e58878     Total:2      MisBP:0   MisRate:0.00%    MPKI:0.00
PC:5e5887c     Total:2      MisBP:0   MisRate:0.00%    MPKI:0.00
PC:5e58880     Total:2      MisBP:0   MisRate:0.00%    MPKI:0.00
PC:5e58884     Total:2      MisBP:0   MisRate:0.00%    MPKI:0.00
PC:51426f8     Total:1      MisBP:0   MisRate:0.00%    MPKI:0.00
PC:63caa0c     Total:2      MisBP:0   MisRate:0.00%    MPKI:0.00
PC:3d25974     Total:2      MisBP:0   MisRate:0.00%    MPKI:0.00
PC:63caa10     Total:1      MisBP:0   MisRate:0.00%    MPKI:0.00
PC:5142700     Total:1      MisBP:0   MisRate:0.00%    MPKI:0.00
PC:63caa14     Total:2      MisBP:0   MisRate:0.00%    MPKI:0.00
PC:5142734     Total:1      MisBP:0   MisRate:0.00%    MPKI:0.00
PC:63caa48     Total:1      MisBP:0   MisRate:0.00%    MPKI:0.00
PC:2f192     Total:1257      MisBP:0   MisRate:0.00%    MPKI:0.00
PC:36cdfb2     Total:1      MisBP:0   MisRate:0.00%    MPKI:0.00
PC:5142738     Total:1      MisBP:0   MisRate:0.00%    MPKI:0.00
PC:63caa4c     Total:1      MisBP:0   MisRate:0.00%    MPKI:0.00
PC:36cdfb6     Total:1      MisBP:0   MisRate:0.00%    MPKI:0.00
PC:36ce92a     Total:3      MisBP:0   MisRate:0.00%    MPKI:0.00
PC:6572194     Total:1      MisBP:0   MisRate:0.00%    MPKI:0.00
PC:6572198     Total:1      MisBP:0   MisRate:0.00%    MPKI:0.00
PC:657219c     Total:1      MisBP:0   MisRate:0.00%    MPKI:0.00
PC:65721a0     Total:1      MisBP:0   MisRate:0.00%    MPKI:0.00
PC:65721a4     Total:1      MisBP:0   MisRate:0.00%    MPKI:0.00
PC:65721a8     Total:1      MisBP:0   MisRate:0.00%    MPKI:0.00
PC:65721ac     Total:1      MisBP:0   MisRate:0.00%    MPKI:0.00
PC:65721b0     Total:1      MisBP:0   MisRate:0.00%    MPKI:0.00
PC:65721b4     Total:1      MisBP:0   MisRate:0.00%    MPKI:0.00
PC:65721b8     Total:2      MisBP:0   MisRate:0.00%    MPKI:0.00
PC:273b638     Total:2      MisBP:0   MisRate:0.00%    MPKI:0.00
PC:3d25960     Total:1      MisBP:0   MisRate:0.00%    MPKI:0.00
PC:36ce92e     Total:3      MisBP:0   MisRate:0.00%    MPKI:0.00
PC:3d25964     Total:1      MisBP:0   MisRate:0.00%    MPKI:0.00
PC:36ce932     Total:3      MisBP:0   MisRate:0.00%    MPKI:0.00
PC:3d25968     Total:1      MisBP:0   MisRate:0.00%    MPKI:0.00
PC:36ce936     Total:3      MisBP:0   MisRate:0.00%    MPKI:0.00
PC:3d2596c     Total:1      MisBP:0   MisRate:0.00%    MPKI:0.00
PC:36ce93a     Total:3      MisBP:0   MisRate:0.00%    MPKI:0.00
PC:3d25970     Total:1      MisBP:0   MisRate:0.00%    MPKI:0.00
PC:36ce93e     Total:3      MisBP:0   MisRate:0.00%    MPKI:0.00
PC:66338ac     Total:1      MisBP:0   MisRate:0.00%    MPKI:0.00
PC:32e11a0     Total:1      MisBP:0   MisRate:0.00%    MPKI:0.00
PC:1aba4     Total:212      MisBP:0   MisRate:0.00%    MPKI:0.00
PC:2b05474     Total:1      MisBP:0   MisRate:0.00%    MPKI:0.00
PC:66338a4     Total:1      MisBP:0   MisRate:0.00%    MPKI:0.00
PC:6599354     Total:2      MisBP:0   MisRate:0.00%    MPKI:0.00
PC:32e11a4     Total:1      MisBP:0   MisRate:0.00%    MPKI:0.00
PC:2b05478     Total:1      MisBP:0   MisRate:0.00%    MPKI:0.00
PC:66338a8     Total:1      MisBP:0   MisRate:0.00%    MPKI:0.00
PC:6599358     Total:1      MisBP:0   MisRate:0.00%    MPKI:0.00
PC:32e11a8     Total:1      MisBP:0   MisRate:0.00%    MPKI:0.00
PC:2b0547c     Total:1      MisBP:0   MisRate:0.00%    MPKI:0.00
PC:6599350     Total:1      MisBP:0   MisRate:0.00%    MPKI:0.00
PC:659935c     Total:1      MisBP:0   MisRate:0.00%    MPKI:0.00
PC:32e11ac     Total:1      MisBP:0   MisRate:0.00%    MPKI:0.00
PC:66338b0     Total:1      MisBP:0   MisRate:0.00%    MPKI:0.00
PC:6599360     Total:1      MisBP:0   MisRate:0.00%    MPKI:0.00
PC:32e11b0     Total:1      MisBP:0   MisRate:0.00%    MPKI:0.00
PC:66338b4     Total:1      MisBP:0   MisRate:0.00%    MPKI:0.00
PC:6599364     Total:2      MisBP:0   MisRate:0.00%    MPKI:0.00
PC:32e11b4     Total:1      MisBP:0   MisRate:0.00%    MPKI:0.00
[...]
PC:30052     Total:6067      MisBP:189   MisRate:3.12%    MPKI:0.00
PC:45ade     Total:951739      MisBP:193   MisRate:0.02%    MPKI:0.00
PC:4b466     Total:9536      MisBP:194   MisRate:2.03%    MPKI:0.00
PC:4df84     Total:1424      MisBP:196   MisRate:13.76%    MPKI:0.00
PC:1b00a     Total:27060      MisBP:197   MisRate:0.73%    MPKI:0.00
PC:400f2     Total:66812      MisBP:197   MisRate:0.29%    MPKI:0.00
PC:bf95c     Total:930657      MisBP:202   MisRate:0.02%    MPKI:0.00
PC:4c1ba     Total:430      MisBP:202   MisRate:46.98%    MPKI:0.00
PC:28     Total:0      MisBP:206   MisRate:inf%    MPKI:0.00
PC:4e2d8     Total:10473      MisBP:211   MisRate:2.01%    MPKI:0.00
PC:2e91e     Total:26756      MisBP:218   MisRate:0.81%    MPKI:0.00
PC:4e2d0     Total:3521      MisBP:221   MisRate:6.28%    MPKI:0.00
PC:4c18e     Total:998      MisBP:231   MisRate:23.15%    MPKI:0.00
PC:4bb00     Total:151024      MisBP:233   MisRate:0.15%    MPKI:0.00
PC:1aa34     Total:3786      MisBP:233   MisRate:6.15%    MPKI:0.00
PC:147f0     Total:3432      MisBP:235   MisRate:6.85%    MPKI:0.00
PC:14866     Total:3430      MisBP:238   MisRate:6.94%    MPKI:0.00
PC:566d4     Total:55248      MisBP:238   MisRate:0.43%    MPKI:0.00
PC:4b430     Total:97870      MisBP:241   MisRate:0.25%    MPKI:0.00
PC:bf93c     Total:109857      MisBP:245   MisRate:0.22%    MPKI:0.00
PC:1a684     Total:77481      MisBP:246   MisRate:0.32%    MPKI:0.00
PC:1b5a0     Total:26282      MisBP:250   MisRate:0.95%    MPKI:0.00
PC:53e7c     Total:177234      MisBP:261   MisRate:0.15%    MPKI:0.00
PC:1a582     Total:5435      MisBP:264   MisRate:4.86%    MPKI:0.00
PC:4a132     Total:439      MisBP:266   MisRate:60.59%    MPKI:0.00
PC:16ba4     Total:61241      MisBP:268   MisRate:0.44%    MPKI:0.00
PC:1b442     Total:31566      MisBP:272   MisRate:0.86%    MPKI:0.00
PC:4bc50     Total:1107624      MisBP:273   MisRate:0.02%    MPKI:0.00
PC:2f2b4     Total:4836      MisBP:278   MisRate:5.75%    MPKI:0.00
PC:1b760     Total:2593      MisBP:282   MisRate:10.88%    MPKI:0.00
PC:bb3ea     Total:10569      MisBP:284   MisRate:2.69%    MPKI:0.00
PC:3ffd6     Total:781306      MisBP:287   MisRate:0.04%    MPKI:0.00
PC:2ebc0     Total:2125      MisBP:292   MisRate:13.74%    MPKI:0.00
PC:1ac40     Total:1571      MisBP:293   MisRate:18.65%    MPKI:0.00
PC:1b0f0     Total:575      MisBP:294   MisRate:51.13%    MPKI:0.00
PC:c0564     Total:33355      MisBP:303   MisRate:0.91%    MPKI:0.00
PC:30174     Total:3670      MisBP:305   MisRate:8.31%    MPKI:0.00
PC:2ee56     Total:39243      MisBP:306   MisRate:0.78%    MPKI:0.00
PC:1a742     Total:38047      MisBP:313   MisRate:0.82%    MPKI:0.00
PC:2ee6e     Total:38308      MisBP:325   MisRate:0.85%    MPKI:0.00
PC:bb4f0     Total:35587      MisBP:329   MisRate:0.92%    MPKI:0.00
PC:a75b2     Total:157981      MisBP:331   MisRate:0.21%    MPKI:0.00
PC:2ebfc     Total:43179      MisBP:342   MisRate:0.79%    MPKI:0.00
PC:2f196     Total:1257      MisBP:344   MisRate:27.37%    MPKI:0.00
PC:14800     Total:3583      MisBP:344   MisRate:9.60%    MPKI:0.00
PC:3ff9c     Total:123738      MisBP:351   MisRate:0.28%    MPKI:0.00
PC:4bc46     Total:275983      MisBP:358   MisRate:0.13%    MPKI:0.00
PC:56e68     Total:29918      MisBP:360   MisRate:1.20%    MPKI:0.00
PC:bf8a2     Total:508      MisBP:361   MisRate:71.06%    MPKI:0.00
PC:bedd8     Total:1758      MisBP:363   MisRate:20.65%    MPKI:0.00
PC:bb53c     Total:62943      MisBP:371   MisRate:0.59%    MPKI:0.00
PC:bf89c     Total:113030      MisBP:372   MisRate:0.33%    MPKI:0.00
PC:2efb8     Total:5122      MisBP:379   MisRate:7.40%    MPKI:0.00
PC:ba898     Total:53907      MisBP:380   MisRate:0.70%    MPKI:0.00
PC:3e032     Total:173596      MisBP:387   MisRate:0.22%    MPKI:0.00
PC:51774     Total:123635      MisBP:389   MisRate:0.31%    MPKI:0.00
PC:4212a     Total:7067      MisBP:391   MisRate:5.53%    MPKI:0.00
PC:1ae5c     Total:31551      MisBP:410   MisRate:1.30%    MPKI:0.00
PC:4bcf2     Total:811      MisBP:411   MisRate:50.68%    MPKI:0.00
PC:1afde     Total:27802      MisBP:419   MisRate:1.51%    MPKI:0.00
PC:1b814     Total:7668      MisBP:421   MisRate:5.49%    MPKI:0.00
PC:2ec42     Total:2865      MisBP:423   MisRate:14.76%    MPKI:0.00
PC:4e2b4     Total:1083      MisBP:432   MisRate:39.89%    MPKI:0.00
PC:56e46     Total:29474      MisBP:447   MisRate:1.52%    MPKI:0.00
PC:ba8ce     Total:144265      MisBP:448   MisRate:0.31%    MPKI:0.00
PC:be9f4     Total:2447      MisBP:457   MisRate:18.68%    MPKI:0.00
PC:1a8f4     Total:41996      MisBP:459   MisRate:1.09%    MPKI:0.00
PC:3a338     Total:155973      MisBP:462   MisRate:0.30%    MPKI:0.00
PC:24     Total:0      MisBP:462   MisRate:inf%    MPKI:0.00
PC:14846     Total:3541      MisBP:470   MisRate:13.27%    MPKI:0.00
PC:bb5f0     Total:672202      MisBP:483   MisRate:0.07%    MPKI:0.00
PC:bb714     Total:11863      MisBP:486   MisRate:4.10%    MPKI:0.00
PC:185e2     Total:2603      MisBP:487   MisRate:18.71%    MPKI:0.00
PC:2f072     Total:6203      MisBP:491   MisRate:7.92%    MPKI:0.00
PC:bad76     Total:120345      MisBP:494   MisRate:0.41%    MPKI:0.00
PC:1a9ea     Total:2963      MisBP:504   MisRate:17.01%    MPKI:0.00
PC:ba83e     Total:6578      MisBP:508   MisRate:7.72%    MPKI:0.00
PC:4c35e     Total:108620      MisBP:510   MisRate:0.47%    MPKI:0.00
PC:ba7e6     Total:121456      MisBP:541   MisRate:0.45%    MPKI:0.00
PC:4c188     Total:29224      MisBP:547   MisRate:1.87%    MPKI:0.00
PC:2f6c6     Total:8387      MisBP:548   MisRate:6.53%    MPKI:0.00
PC:4b43a     Total:30002      MisBP:571   MisRate:1.90%    MPKI:0.00
PC:4bca6     Total:2661      MisBP:580   MisRate:21.80%    MPKI:0.00
PC:ba888     Total:53915      MisBP:594   MisRate:1.10%    MPKI:0.00
PC:40020     Total:63263      MisBP:600   MisRate:0.95%    MPKI:0.00
PC:15b3c     Total:30177      MisBP:620   MisRate:2.05%    MPKI:0.00
PC:1aa60     Total:17229      MisBP:622   MisRate:3.61%    MPKI:0.00
PC:2ef2a     Total:30725      MisBP:626   MisRate:2.04%    MPKI:0.00
PC:20     Total:0      MisBP:629   MisRate:inf%    MPKI:0.00
PC:420ca     Total:64316      MisBP:633   MisRate:0.98%    MPKI:0.00
PC:45a8a     Total:151339      MisBP:652   MisRate:0.43%    MPKI:0.00
PC:3ce84     Total:7621      MisBP:655   MisRate:8.59%    MPKI:0.00
PC:3df3a     Total:173304      MisBP:661   MisRate:0.38%    MPKI:0.00
PC:1c     Total:0      MisBP:671   MisRate:inf%    MPKI:0.00
PC:1a9dc     Total:18848      MisBP:672   MisRate:3.57%    MPKI:0.00
PC:1a86c     Total:39341      MisBP:681   MisRate:1.73%    MPKI:0.00
PC:bd276     Total:169626      MisBP:682   MisRate:0.40%    MPKI:0.00
PC:4a55c     Total:126202      MisBP:686   MisRate:0.54%    MPKI:0.00
PC:a75d0     Total:156958      MisBP:703   MisRate:0.45%    MPKI:0.00
PC:1b766     Total:173473      MisBP:713   MisRate:0.41%    MPKI:0.00
PC:18     Total:0      MisBP:727   MisRate:inf%    MPKI:0.00
PC:bd26a     Total:169764      MisBP:741   MisRate:0.44%    MPKI:0.00
PC:4004c     Total:63194      MisBP:760   MisRate:1.20%    MPKI:0.00
PC:1a47c     Total:25255      MisBP:766   MisRate:3.03%    MPKI:0.00
PC:1a534     Total:263655      MisBP:766   MisRate:0.29%    MPKI:0.00
PC:30166     Total:7241      MisBP:771   MisRate:10.65%    MPKI:0.00
PC:4df48     Total:166203      MisBP:774   MisRate:0.47%    MPKI:0.00
PC:14484     Total:60507      MisBP:774   MisRate:1.28%    MPKI:0.00
PC:4c1a8     Total:23942      MisBP:780   MisRate:3.26%    MPKI:0.00
PC:1a9f4     Total:3190      MisBP:781   MisRate:24.48%    MPKI:0.00
PC:517f2     Total:78544      MisBP:786   MisRate:1.00%    MPKI:0.00
PC:3ffac     Total:63618      MisBP:798   MisRate:1.25%    MPKI:0.00
PC:4e1fc     Total:158488      MisBP:804   MisRate:0.51%    MPKI:0.00
PC:4b436     Total:233899      MisBP:809   MisRate:0.35%    MPKI:0.00
PC:14     Total:0      MisBP:814   MisRate:inf%    MPKI:0.00
PC:4c37e     Total:32399      MisBP:876   MisRate:2.70%    MPKI:0.00
PC:465de     Total:89647      MisBP:904   MisRate:1.01%    MPKI:0.00
PC:10     Total:0      MisBP:909   MisRate:inf%    MPKI:0.00
PC:1a7ba     Total:32640      MisBP:910   MisRate:2.79%    MPKI:0.00
PC:1a936     Total:35808      MisBP:910   MisRate:2.54%    MPKI:0.00
PC:c     Total:0      MisBP:918   MisRate:inf%    MPKI:0.00
PC:ba16a     Total:9518      MisBP:929   MisRate:9.76%    MPKI:0.00
PC:45ab8     Total:86974      MisBP:930   MisRate:1.07%    MPKI:0.00
PC:56dfe     Total:64027      MisBP:939   MisRate:1.47%    MPKI:0.00
PC:1a914     Total:37480      MisBP:942   MisRate:2.51%    MPKI:0.00
PC:8     Total:0      MisBP:954   MisRate:inf%    MPKI:0.00
PC:ba166     Total:9964      MisBP:958   MisRate:9.61%    MPKI:0.00
PC:4216a     Total:13541      MisBP:966   MisRate:7.13%    MPKI:0.00
PC:4dfb8     Total:3959      MisBP:981   MisRate:24.78%    MPKI:0.00
PC:4     Total:0      MisBP:982   MisRate:inf%    MPKI:0.00
PC:4c1c8     Total:28797      MisBP:992   MisRate:3.44%    MPKI:0.00
PC:0     Total:0      MisBP:1016   MisRate:inf%    MPKI:0.00
PC:1ae6a     Total:31746      MisBP:1029   MisRate:3.24%    MPKI:0.00
PC:1473a     Total:4063      MisBP:1037   MisRate:25.52%    MPKI:0.00
PC:bb454     Total:16595      MisBP:1043   MisRate:6.29%    MPKI:0.00
PC:bb2aa     Total:48738      MisBP:1045   MisRate:2.14%    MPKI:0.00
PC:566f8     Total:4660      MisBP:1046   MisRate:22.45%    MPKI:0.00
PC:4df78     Total:162981      MisBP:1050   MisRate:0.64%    MPKI:0.00
PC:1af64     Total:29610      MisBP:1068   MisRate:3.61%    MPKI:0.00
PC:1a9e6     Total:50585      MisBP:1071   MisRate:2.12%    MPKI:0.00
PC:bb70e     Total:78024      MisBP:1117   MisRate:1.43%    MPKI:0.00
PC:4e1f0     Total:157386      MisBP:1139   MisRate:0.72%    MPKI:0.00
PC:4baba     Total:173774      MisBP:1146   MisRate:0.66%    MPKI:0.00
PC:3e006     Total:175958      MisBP:1210   MisRate:0.69%    MPKI:0.00
PC:4b454     Total:22502      MisBP:1273   MisRate:5.66%    MPKI:0.00
PC:2ef1a     Total:29116      MisBP:1311   MisRate:4.50%    MPKI:0.00
PC:4bc5c     Total:267893      MisBP:1313   MisRate:0.49%    MPKI:0.00
PC:3aeca     Total:176794      MisBP:1344   MisRate:0.76%    MPKI:0.00
PC:18624     Total:18732      MisBP:1351   MisRate:7.21%    MPKI:0.00
PC:566fa     Total:4583      MisBP:1416   MisRate:30.90%    MPKI:0.00
PC:2f6d4     Total:10335      MisBP:1426   MisRate:13.80%    MPKI:0.00
PC:420f4     Total:16344      MisBP:1464   MisRate:8.96%    MPKI:0.00
PC:be728     Total:3567      MisBP:1511   MisRate:42.36%    MPKI:0.00
PC:1afd6     Total:26345      MisBP:1547   MisRate:5.87%    MPKI:0.00
PC:be6fa     Total:46432      MisBP:1554   MisRate:3.35%    MPKI:0.01
PC:1b4bc     Total:24573      MisBP:1572   MisRate:6.40%    MPKI:0.01
PC:571da     Total:91887      MisBP:1582   MisRate:1.72%    MPKI:0.01
PC:566d8     Total:77640      MisBP:1582   MisRate:2.04%    MPKI:0.01
PC:bb7d4     Total:41212      MisBP:1636   MisRate:3.97%    MPKI:0.01
PC:1ae2a     Total:34472      MisBP:1663   MisRate:4.82%    MPKI:0.01
PC:1a530     Total:268412      MisBP:1674   MisRate:0.62%    MPKI:0.01
PC:4b462     Total:17532      MisBP:1675   MisRate:9.55%    MPKI:0.01
PC:46528     Total:107074      MisBP:1677   MisRate:1.57%    MPKI:0.01
PC:420e4     Total:64412      MisBP:1688   MisRate:2.62%    MPKI:0.01
PC:4e1ea     Total:155800      MisBP:1695   MisRate:1.09%    MPKI:0.01
PC:51800     Total:170517      MisBP:1696   MisRate:0.99%    MPKI:0.01
PC:bb49a     Total:80774      MisBP:1698   MisRate:2.10%    MPKI:0.01
PC:44750     Total:196743      MisBP:1723   MisRate:0.88%    MPKI:0.01
PC:4476e     Total:207950      MisBP:1765   MisRate:0.85%    MPKI:0.01
PC:517fc     Total:100243      MisBP:1770   MisRate:1.77%    MPKI:0.01
PC:46baa     Total:115072      MisBP:1841   MisRate:1.60%    MPKI:0.01
PC:46b22     Total:114625      MisBP:1862   MisRate:1.62%    MPKI:0.01
PC:ba766     Total:32995      MisBP:1912   MisRate:5.79%    MPKI:0.01
PC:3aeb8     Total:301632      MisBP:1943   MisRate:0.64%    MPKI:0.01
PC:3f422     Total:313885      MisBP:2007   MisRate:0.64%    MPKI:0.01
PC:1b7de     Total:111319      MisBP:2076   MisRate:1.86%    MPKI:0.01
PC:46bbc     Total:109383      MisBP:2163   MisRate:1.98%    MPKI:0.01
PC:1a666     Total:261235      MisBP:2177   MisRate:0.83%    MPKI:0.01
PC:4a558     Total:247227      MisBP:2320   MisRate:0.94%    MPKI:0.01
PC:53ec2     Total:818349      MisBP:2329   MisRate:0.28%    MPKI:0.01
PC:bb584     Total:63872      MisBP:2379   MisRate:3.72%    MPKI:0.01
PC:bb27a     Total:251543      MisBP:2389   MisRate:0.95%    MPKI:0.01
PC:2fe8a     Total:3007      MisBP:2402   MisRate:79.88%    MPKI:0.01
PC:ba83a     Total:23113      MisBP:2450   MisRate:10.60%    MPKI:0.01
PC:1a810     Total:38536      MisBP:2513   MisRate:6.52%    MPKI:0.01
PC:3f9b8     Total:437480      MisBP:2520   MisRate:0.58%    MPKI:0.01
PC:1af30     Total:30199      MisBP:2591   MisRate:8.58%    MPKI:0.01
PC:be812     Total:23763      MisBP:2612   MisRate:10.99%    MPKI:0.01
PC:bb1f2     Total:171151      MisBP:2614   MisRate:1.53%    MPKI:0.01
PC:2ec50     Total:684774      MisBP:2659   MisRate:0.39%    MPKI:0.01
PC:1b540     Total:30813      MisBP:2681   MisRate:8.70%    MPKI:0.01
PC:1adbc     Total:39157      MisBP:2725   MisRate:6.96%    MPKI:0.01
PC:53e8a     Total:175571      MisBP:2783   MisRate:1.59%    MPKI:0.01
PC:be9f0     Total:25734      MisBP:2835   MisRate:11.02%    MPKI:0.01
PC:46702     Total:125007      MisBP:2836   MisRate:2.27%    MPKI:0.01
PC:ba6e6     Total:161086      MisBP:2854   MisRate:1.77%    MPKI:0.01
PC:1861c     Total:21348      MisBP:2857   MisRate:13.38%    MPKI:0.01
PC:ba880     Total:54320      MisBP:2943   MisRate:5.42%    MPKI:0.01
PC:1ad6e     Total:61057      MisBP:3030   MisRate:4.96%    MPKI:0.01
PC:bb724     Total:78559      MisBP:3053   MisRate:3.89%    MPKI:0.01
PC:2ec56     Total:677807      MisBP:3098   MisRate:0.46%    MPKI:0.01
PC:be7fa     Total:59470      MisBP:3112   MisRate:5.23%    MPKI:0.01
PC:3ffa6     Total:125614      MisBP:3131   MisRate:2.49%    MPKI:0.01
PC:2ebec     Total:50006      MisBP:3159   MisRate:6.32%    MPKI:0.01
PC:4dfb0     Total:164501      MisBP:3162   MisRate:1.92%    MPKI:0.01
PC:be788     Total:218120      MisBP:3176   MisRate:1.46%    MPKI:0.01
PC:1b7e0     Total:111182      MisBP:3203   MisRate:2.88%    MPKI:0.01
PC:1ad90     Total:61829      MisBP:3209   MisRate:5.19%    MPKI:0.01
PC:1b742     Total:175160      MisBP:3222   MisRate:1.84%    MPKI:0.01
PC:185fe     Total:30967      MisBP:3321   MisRate:10.72%    MPKI:0.01
PC:4e216     Total:733831      MisBP:3352   MisRate:0.46%    MPKI:0.01
PC:2f6c2     Total:51860      MisBP:3355   MisRate:6.47%    MPKI:0.01
PC:3b472     Total:12903      MisBP:3399   MisRate:26.34%    MPKI:0.01
PC:bb3ba     Total:90487      MisBP:3568   MisRate:3.94%    MPKI:0.01
PC:bb3aa     Total:163001      MisBP:3631   MisRate:2.23%    MPKI:0.01
PC:1a9d4     Total:47436      MisBP:3643   MisRate:7.68%    MPKI:0.01
PC:4ba76     Total:177149      MisBP:3770   MisRate:2.13%    MPKI:0.01
PC:4bb0c     Total:489172      MisBP:3781   MisRate:0.77%    MPKI:0.01
PC:1a9b4     Total:48896      MisBP:3797   MisRate:7.77%    MPKI:0.01
PC:1a9a0     Total:53123      MisBP:3850   MisRate:7.25%    MPKI:0.01
PC:566e2     Total:77375      MisBP:3864   MisRate:4.99%    MPKI:0.01
PC:51808     Total:516712      MisBP:4033   MisRate:0.78%    MPKI:0.01
PC:4bb5a     Total:163118      MisBP:4076   MisRate:2.50%    MPKI:0.01
PC:4c320     Total:30383      MisBP:4355   MisRate:14.33%    MPKI:0.01
PC:51682     Total:667927      MisBP:4388   MisRate:0.66%    MPKI:0.01
PC:18606     Total:30911      MisBP:4462   MisRate:14.43%    MPKI:0.01
PC:bb3b2     Total:129971      MisBP:4635   MisRate:3.57%    MPKI:0.01
PC:46b86     Total:7451      MisBP:4647   MisRate:62.37%    MPKI:0.01
PC:45aa4     Total:369863      MisBP:4652   MisRate:1.26%    MPKI:0.02
PC:56700     Total:395723      MisBP:4806   MisRate:1.21%    MPKI:0.02
PC:bb4a2     Total:73166      MisBP:4944   MisRate:6.76%    MPKI:0.02
PC:1b778     Total:47013      MisBP:4980   MisRate:10.59%    MPKI:0.02
PC:51658     Total:796639      MisBP:4997   MisRate:0.63%    MPKI:0.02
PC:2ebf0     Total:50842      MisBP:5286   MisRate:10.40%    MPKI:0.02
PC:45ab2     Total:590934      MisBP:5523   MisRate:0.93%    MPKI:0.02
PC:babc8     Total:30850      MisBP:5999   MisRate:19.45%    MPKI:0.02
PC:46b80     Total:108749      MisBP:6870   MisRate:6.32%    MPKI:0.02
PC:3ce58     Total:167021      MisBP:7023   MisRate:4.20%    MPKI:0.02
PC:45d26     Total:225535      MisBP:7063   MisRate:3.13%    MPKI:0.02
PC:1b77e     Total:193832      MisBP:7216   MisRate:3.72%    MPKI:0.02
PC:1b7a6     Total:90379      MisBP:7249   MisRate:8.02%    MPKI:0.02
PC:bb598     Total:73431      MisBP:7291   MisRate:9.93%    MPKI:0.02
PC:4e238     Total:189733      MisBP:8035   MisRate:4.23%    MPKI:0.03
PC:bab80     Total:142182      MisBP:8055   MisRate:5.67%    MPKI:0.03
PC:bb5fc     Total:88904      MisBP:8691   MisRate:9.78%    MPKI:0.03
PC:4bb96     Total:189651      MisBP:9191   MisRate:4.85%    MPKI:0.03
PC:be754     Total:235843      MisBP:9716   MisRate:4.12%    MPKI:0.03
PC:517e4     Total:144758      MisBP:10223   MisRate:7.06%    MPKI:0.03
PC:4bb22     Total:475378      MisBP:10530   MisRate:2.22%    MPKI:0.03
PC:1a52a     Total:336286      MisBP:10629   MisRate:3.16%    MPKI:0.03
PC:ba814     Total:120224      MisBP:10712   MisRate:8.91%    MPKI:0.03
PC:bb592     Total:70639      MisBP:11110   MisRate:15.73%    MPKI:0.04
PC:ba870     Total:132983      MisBP:11201   MisRate:8.42%    MPKI:0.04
PC:be6f0     Total:270087      MisBP:11653   MisRate:4.31%    MPKI:0.04
PC:45ac6     Total:210617      MisBP:12793   MisRate:6.07%    MPKI:0.04
PC:bb38c     Total:219445      MisBP:13494   MisRate:6.15%    MPKI:0.04
PC:51676     Total:816669      MisBP:13525   MisRate:1.66%    MPKI:0.04
PC:4badc     Total:179299      MisBP:15503   MisRate:8.65%    MPKI:0.05
PC:660f0     Total:376729      MisBP:15679   MisRate:4.16%    MPKI:0.05
PC:4bbb0     Total:4411629      MisBP:16177   MisRate:0.37%    MPKI:0.05
PC:5165c     Total:672037      MisBP:16448   MisRate:2.45%    MPKI:0.05
PC:51664     Total:679473      MisBP:17387   MisRate:2.56%    MPKI:0.06
PC:1b770     Total:170996      MisBP:21127   MisRate:12.36%    MPKI:0.07
PC:44762     Total:198839      MisBP:22507   MisRate:11.32%    MPKI:0.07
PC:4b420     Total:258594      MisBP:24899   MisRate:9.63%    MPKI:0.08
PC:be6da     Total:460556      MisBP:26509   MisRate:5.76%    MPKI:0.09
PC:660fc     Total:777462      MisBP:35957   MisRate:4.62%    MPKI:0.12
PC:4b426     Total:322351      MisBP:37044   MisRate:11.49%    MPKI:0.12
PC:bf94e     Total:1297811      MisBP:39046   MisRate:3.01%    MPKI:0.13
PC:45a96     Total:542391      MisBP:50178   MisRate:9.25%    MPKI:0.16
PC:bb5f6     Total:737744      MisBP:52218   MisRate:7.08%    MPKI:0.17
PC:660da     Total:697306      MisBP:56330   MisRate:8.08%    MPKI:0.18
PC:660e4     Total:1218826      MisBP:63951   MisRate:5.25%    MPKI:0.21
PC:465be     Total:71974      MisBP:64585   MisRate:89.73%    MPKI:0.21
PC:4baee     Total:597447      MisBP:68998   MisRate:11.55%    MPKI:0.22
PC:465b0     Total:86384      MisBP:69711   MisRate:80.70%    MPKI:0.22
PC:4a5b2     Total:461762      MisBP:69867   MisRate:15.13%    MPKI:0.23
PC:4bb84     Total:4495014      MisBP:99296   MisRate:2.21%    MPKI:0.32
PC:4bb82     Total:4515004      MisBP:102413   MisRate:2.27%    MPKI:0.33
PC:4bbaa     Total:4420591      MisBP:152635   MisRate:3.45%    MPKI:0.49
PC:bf94a     Total:1243605      MisBP:182215   MisRate:14.65%    MPKI:0.59
PC:4bbd8     Total:4057982      MisBP:301826   MisRate:7.44%    MPKI:0.97
PC:4bbda     Total:3589499      MisBP:310697   MisRate:8.66%    MPKI:1.00
PC:4bbf0     Total:2293854      MisBP:344599   MisRate:15.02%    MPKI:1.11
Totfetch:576888173  TotInsts:310000003  TotMis : inf%   MPKI : 9.15
=============finish sim!!!!!!=============
Done running SimPoint!
